UoS-7692
                    3D
 Schrodinger Suite 2021-2.
 49 52  0  0  1  0            999 V2000
    2.4603    4.3511   -1.2123 O   0  0  0  0  0  0
    1.5187    3.6873   -1.6403 C   0  0  0  0  0  0
    1.7212    2.4096   -2.3995 C   0  0  0  0  0  0
    1.7489    1.2877   -1.4656 N   0  3  1  0  0  0
    1.6220    1.8101   -0.0172 C   0  0  0  0  0  0
    1.6512    0.6160    0.9559 C   0  0  0  0  0  0
    0.5766   -0.4340    0.6154 C   0  0  2  0  0  0
    0.6862   -1.6045    1.5469 C   0  0  0  0  0  0
    1.9927   -2.2355    1.3839 N   0  0  0  0  0  0
    2.9447   -1.7896    0.4992 C   0  0  0  0  0  0
    4.0432   -2.5058    0.5191 N   0  0  0  0  0  0
    3.8078   -3.4747    1.4639 C   0  0  0  0  0  0
    4.6374   -4.5139    1.9004 C   0  0  0  0  0  0
    4.1619   -5.3808    2.8870 C   0  0  0  0  0  0
    2.8879   -5.2204    3.4307 C   0  0  0  0  0  0
    2.0347   -4.1936    3.0174 C   0  0  0  0  0  0
    2.5167   -3.3308    2.0307 C   0  0  0  0  0  0
    0.6905   -0.9078   -0.8460 C   0  0  0  0  0  0
    0.6499    0.2684   -1.8404 C   0  0  0  0  0  0
    0.0913    4.1016   -1.4381 C   0  0  0  0  0  0
   -0.9439    3.3128   -1.9440 C   0  0  0  0  0  0
   -2.2723    3.6997   -1.7550 C   0  0  0  0  0  0
   -2.5665    4.8741   -1.0606 C   0  0  0  0  0  0
   -3.8564    5.2417   -0.8818 F   0  0  0  0  0  0
   -1.5299    5.6638   -0.5540 C   0  0  0  0  0  0
   -1.8059    6.8040    0.1205 F   0  0  0  0  0  0
   -0.2025    5.2767   -0.7433 C   0  0  0  0  0  0
    2.6589    0.8676   -1.5956 H   0  0  0  0  0  0
    2.6658    2.4547   -2.9415 H   0  0  0  0  0  0
    0.9029    2.2736   -3.1067 H   0  0  0  0  0  0
    0.6863    2.3713    0.0378 H   0  0  0  0  0  0
    2.4500    2.5031    0.1493 H   0  0  0  0  0  0
    1.5064    0.9768    1.9763 H   0  0  0  0  0  0
    2.6416    0.1567    0.9475 H   0  0  0  0  0  0
   -0.4165   -0.0127    0.7887 H   0  0  0  0  0  0
   -0.0974   -2.3266    1.3168 H   0  0  0  0  0  0
    0.5738   -1.2620    2.5755 H   0  0  0  0  0  0
    2.7439   -0.9237   -0.1260 H   0  0  0  0  0  0
    5.6248   -4.6400    1.4807 H   0  0  0  0  0  0
    4.7900   -6.1902    3.2367 H   0  0  0  0  0  0
    2.5530   -5.9116    4.1938 H   0  0  0  0  0  0
    1.0484   -4.0783    3.4456 H   0  0  0  0  0  0
   -0.1201   -1.6029   -1.0744 H   0  0  0  0  0  0
    1.6109   -1.4782   -0.9857 H   0  0  0  0  0  0
    0.8412   -0.0486   -2.8682 H   0  0  0  0  0  0
   -0.3022    0.8036   -1.8160 H   0  0  0  0  0  0
   -0.7175    2.4021   -2.4826 H   0  0  0  0  0  0
   -3.0768    3.0921   -2.1449 H   0  0  0  0  0  0
    0.5957    5.8903   -0.3499 H   0  0  0  0  0  0
  1  2  2  0  0  0
  2  3  1  0  0  0
  2 20  1  0  0  0
  3  4  1  0  0  0
  3 29  1  0  0  0
  3 30  1  0  0  0
  4  5  1  0  0  0
  4 19  1  0  0  0
  4 28  1  0  0  0
  5  6  1  0  0  0
  5 31  1  0  0  0
  5 32  1  0  0  0
  6  7  1  0  0  0
  6 33  1  0  0  0
  6 34  1  0  0  0
  7  8  1  0  0  0
  7 18  1  0  0  0
  7 35  1  0  0  0
  8  9  1  0  0  0
  8 36  1  0  0  0
  8 37  1  0  0  0
  9 10  1  0  0  0
  9 17  1  0  0  0
 10 11  2  0  0  0
 10 38  1  0  0  0
 11 12  1  0  0  0
 12 13  2  0  0  0
 12 17  1  0  0  0
 13 14  1  0  0  0
 13 39  1  0  0  0
 14 15  2  0  0  0
 14 40  1  0  0  0
 15 16  1  0  0  0
 15 41  1  0  0  0
 16 17  2  0  0  0
 16 42  1  0  0  0
 18 19  1  0  0  0
 18 43  1  0  0  0
 18 44  1  0  0  0
 19 45  1  0  0  0
 19 46  1  0  0  0
 20 21  2  0  0  0
 20 27  1  0  0  0
 21 22  1  0  0  0
 21 47  1  0  0  0
 22 23  2  0  0  0
 22 48  1  0  0  0
 23 24  1  0  0  0
 23 25  1  0  0  0
 25 26  1  0  0  0
 25 27  2  0  0  0
 27 49  1  0  0  0
M  CHG  1   4   1
M  END
$$$$
UoS-3607
                    3D
 Schrodinger Suite 2021-2.
 50 53  0  0  1  0            999 V2000
   -1.3037    0.1763   -3.0931 O   0  0  0  0  0  0
   -1.6895   -0.5824   -2.2086 C   0  0  0  0  0  0
   -1.3064   -0.4913   -0.7612 C   0  0  0  0  0  0
    0.0319    0.0812   -0.6472 N   0  3  2  0  0  0
    1.0387   -0.7811   -1.4409 C   0  0  0  0  0  0
    2.4452   -0.1660   -1.3100 C   0  0  0  0  0  0
    2.8622    0.0161    0.1618 C   0  0  2  0  0  0
    3.0347   -1.3270    0.8070 C   0  0  0  0  0  0
    3.8529   -2.2800    0.4296 N   0  0  0  0  0  0
    3.6401   -3.2957    1.3295 C   0  0  0  0  0  0
    4.2412   -4.5569    1.4083 C   0  0  0  0  0  0
    3.8478   -5.4237    2.4305 C   0  0  0  0  0  0
    2.8765   -5.0470    3.3574 C   0  0  0  0  0  0
    2.2566   -3.7953    3.3070 C   0  0  0  0  0  0
    2.6551   -2.9342    2.2824 C   0  0  0  0  0  0
    2.2899   -1.6604    1.9125 N   0  0  0  0  0  0
    1.8232    0.8385    0.9474 C   0  0  0  0  0  0
    0.4092    0.2353    0.8431 C   0  0  0  0  0  0
   -2.5163   -1.6027   -2.4393 N   0  0  0  0  0  0
   -3.0738   -1.9651   -3.7391 C   0  0  0  0  0  0
   -3.5697   -3.2462   -3.9499 C   0  0  0  0  0  0
   -4.1004   -3.5911   -5.1872 C   0  0  0  0  0  0
   -4.1353   -2.6548   -6.2138 C   0  0  0  0  0  0
   -3.6393   -1.3737   -6.0030 C   0  0  0  0  0  0
   -3.6759   -0.3901   -7.0814 N   0  3  0  0  0  0
   -3.2234    0.7206   -6.8320 O   0  0  0  0  0  0
   -4.1559   -0.7562   -8.1473 O   0  5  0  0  0  0
   -3.1086   -1.0288   -4.7657 C   0  0  0  0  0  0
   -0.0421    0.9944   -1.0739 H   0  0  0  0  0  0
   -1.3141   -1.4879   -0.3199 H   0  0  0  0  0  0
   -2.0194    0.1442   -0.2360 H   0  0  0  0  0  0
    0.6918   -0.8104   -2.4765 H   0  0  0  0  0  0
    0.9847   -1.7921   -1.0304 H   0  0  0  0  0  0
    2.4795    0.7924   -1.8318 H   0  0  0  0  0  0
    3.1681   -0.8030   -1.8238 H   0  0  0  0  0  0
    3.8415    0.4967    0.2178 H   0  0  0  0  0  0
    4.9941   -4.8510    0.6914 H   0  0  0  0  0  0
    4.3022   -6.4033    2.5067 H   0  0  0  0  0  0
    2.5965   -5.7451    4.1362 H   0  0  0  0  0  0
    1.5044   -3.5132    4.0310 H   0  0  0  0  0  0
    1.6080   -1.0391    2.3366 H   0  0  0  0  0  0
    1.8120    1.8701    0.5901 H   0  0  0  0  0  0
    2.1149    0.8976    1.9979 H   0  0  0  0  0  0
   -0.3500    0.8718    1.3037 H   0  0  0  0  0  0
    0.3447   -0.7586    1.2920 H   0  0  0  0  0  0
   -2.8579   -2.2498   -1.7431 H   0  0  0  0  0  0
   -3.5426   -3.9751   -3.1507 H   0  0  0  0  0  0
   -4.4865   -4.5884   -5.3513 H   0  0  0  0  0  0
   -4.5485   -2.9232   -7.1772 H   0  0  0  0  0  0
   -2.7225   -0.0314   -4.6016 H   0  0  0  0  0  0
  1  2  2  0  0  0
  2  3  1  0  0  0
  2 19  1  0  0  0
  3  4  1  0  0  0
  3 30  1  0  0  0
  3 31  1  0  0  0
  4  5  1  0  0  0
  4 18  1  0  0  0
  4 29  1  0  0  0
  5  6  1  0  0  0
  5 32  1  0  0  0
  5 33  1  0  0  0
  6  7  1  0  0  0
  6 34  1  0  0  0
  6 35  1  0  0  0
  7  8  1  0  0  0
  7 17  1  0  0  0
  7 36  1  0  0  0
  8  9  2  0  0  0
  8 16  1  0  0  0
  9 10  1  0  0  0
 10 11  2  0  0  0
 10 15  1  0  0  0
 11 12  1  0  0  0
 11 37  1  0  0  0
 12 13  2  0  0  0
 12 38  1  0  0  0
 13 14  1  0  0  0
 13 39  1  0  0  0
 14 15  2  0  0  0
 14 40  1  0  0  0
 15 16  1  0  0  0
 16 41  1  0  0  0
 17 18  1  0  0  0
 17 42  1  0  0  0
 17 43  1  0  0  0
 18 44  1  0  0  0
 18 45  1  0  0  0
 19 20  1  0  0  0
 19 46  1  0  0  0
 20 21  2  0  0  0
 20 28  1  0  0  0
 21 22  1  0  0  0
 21 47  1  0  0  0
 22 23  2  0  0  0
 22 48  1  0  0  0
 23 24  1  0  0  0
 23 49  1  0  0  0
 24 25  1  0  0  0
 24 28  2  0  0  0
 25 26  2  0  0  0
 25 27  1  0  0  0
 28 50  1  0  0  0
M  CHG  3   4   1  25   1  27  -1
M  END
$$$$
UoS-3606
                    3D
 Schrodinger Suite 2021-2.
 48 51  0  0  1  0            999 V2000
   -1.7880    2.4810   -1.6613 C   0  0  0  0  0  0
   -2.4801    3.6292   -1.6613 C   0  0  0  0  0  0
   -3.9801    3.6292   -1.6613 C   0  0  0  0  0  0
   -4.6750    4.8328   -1.6613 C   0  0  0  0  0  0
   -6.0648    4.8328   -1.6613 C   0  0  0  0  0  0
   -6.7597    3.6292   -1.6613 C   0  0  0  0  0  0
   -6.0648    2.4256   -1.6613 C   0  0  0  0  0  0
   -4.6750    2.4256   -1.6613 C   0  0  0  0  0  0
   -0.2880    2.4810   -1.6613 C   0  0  0  0  0  0
    0.1987    1.2889   -0.9730 N   0  3  1  0  0  0
    1.0070    0.4118   -1.9550 C   0  0  0  0  0  0
    1.5149   -0.8403   -1.2147 C   0  0  0  0  0  0
    2.3204   -0.4790    0.0477 C   0  0  2  0  0  0
    2.7370   -1.7269    0.7682 C   0  0  0  0  0  0
    3.8290   -2.4239    0.5640 N   0  0  0  0  0  0
    3.7510   -3.4606    1.4618 C   0  0  0  0  0  0
    4.6449   -4.5136    1.6869 C   0  0  0  0  0  0
    4.3358   -5.4556    2.6708 C   0  0  0  0  0  0
    3.1626   -5.3556    3.4176 C   0  0  0  0  0  0
    2.2489   -4.3169    3.2181 C   0  0  0  0  0  0
    2.5645   -3.3789    2.2328 C   0  0  0  0  0  0
    1.9388   -2.2500    1.7568 N   0  0  0  0  0  0
    1.5149    0.4336    0.9918 C   0  0  0  0  0  0
    1.0070    1.7008    0.2776 C   0  0  0  0  0  0
   -0.6372    0.7970   -0.6890 H   0  0  0  0  0  0
   -2.2924    1.5257   -1.6613 H   0  0  0  0  0  0
   -1.9757    4.5845   -1.6613 H   0  0  0  0  0  0
   -4.1340    5.7699   -1.6613 H   0  0  0  0  0  0
   -6.6058    5.7699   -1.6613 H   0  0  0  0  0  0
   -7.8418    3.6292   -1.6613 H   0  0  0  0  0  0
   -6.6059    1.4885   -1.6613 H   0  0  0  0  0  0
   -4.1340    1.4885   -1.6613 H   0  0  0  0  0  0
    0.0754    3.3710   -1.1474 H   0  0  0  0  0  0
    0.0754    2.4810   -2.6889 H   0  0  0  0  0  0
    1.8222    1.0307   -2.3373 H   0  0  0  0  0  0
    0.3434    0.1633   -2.7865 H   0  0  0  0  0  0
    2.1327   -1.4349   -1.8908 H   0  0  0  0  0  0
    0.6713   -1.4816   -0.9517 H   0  0  0  0  0  0
    3.2499    0.0184   -0.2395 H   0  0  0  0  0  0
    5.5546   -4.5932    1.1096 H   0  0  0  0  0  0
    5.0159   -6.2768    2.8585 H   0  0  0  0  0  0
    2.9560   -6.1042    4.1720 H   0  0  0  0  0  0
    1.3417   -4.2488    3.8029 H   0  0  0  0  0  0
    1.0569   -1.8358    2.0424 H   0  0  0  0  0  0
    2.1326    0.7218    1.8448 H   0  0  0  0  0  0
    0.6713   -0.1148    1.4157 H   0  0  0  0  0  0
    0.3434    2.2967    0.9085 H   0  0  0  0  0  0
    1.8222    2.3413   -0.0672 H   0  0  0  0  0  0
  1  2  2  0  0  0
  1  9  1  0  0  0
  1 26  1  0  0  0
  2  3  1  0  0  0
  2 27  1  0  0  0
  3  4  2  0  0  0
  3  8  1  0  0  0
  4  5  1  0  0  0
  4 28  1  0  0  0
  5  6  2  0  0  0
  5 29  1  0  0  0
  6  7  1  0  0  0
  6 30  1  0  0  0
  7  8  2  0  0  0
  7 31  1  0  0  0
  8 32  1  0  0  0
  9 10  1  0  0  0
  9 33  1  0  0  0
  9 34  1  0  0  0
 10 11  1  0  0  0
 10 24  1  0  0  0
 10 25  1  0  0  0
 11 12  1  0  0  0
 11 35  1  0  0  0
 11 36  1  0  0  0
 12 13  1  0  0  0
 12 37  1  0  0  0
 12 38  1  0  0  0
 13 14  1  0  0  0
 13 23  1  0  0  0
 13 39  1  0  0  0
 14 15  2  0  0  0
 14 22  1  0  0  0
 15 16  1  0  0  0
 16 17  2  0  0  0
 16 21  1  0  0  0
 17 18  1  0  0  0
 17 40  1  0  0  0
 18 19  2  0  0  0
 18 41  1  0  0  0
 19 20  1  0  0  0
 19 42  1  0  0  0
 20 21  2  0  0  0
 20 43  1  0  0  0
 21 22  1  0  0  0
 22 44  1  0  0  0
 23 24  1  0  0  0
 23 45  1  0  0  0
 23 46  1  0  0  0
 24 47  1  0  0  0
 24 48  1  0  0  0
M  CHG  1  10   1
M  END
$$$$
E6_berbamine
                    3D
 Schrodinger Suite 2021-2.
101108  0  0  1  0            999 V2000
    1.2381   -2.4196    4.1720 C   0  0  0  0  0  0
    1.9641   -2.3003    3.0046 O   0  0  0  0  0  0
    2.7768   -3.3762    2.7108 C   0  0  0  0  0  0
    2.8038   -4.4610    3.6083 C   0  0  0  0  0  0
    3.6158   -5.5747    3.3315 C   0  0  0  0  0  0
    4.3748   -5.5701    2.1420 C   0  0  0  0  0  0
    4.3935   -4.4933    1.2293 C   0  0  0  0  0  0
    3.5762   -3.3812    1.5397 C   0  0  0  0  0  0
    3.5674   -2.3421    0.6343 O   0  0  0  0  0  0
    3.2404   -1.0649    1.0300 C   0  0  0  0  0  0
    3.9150   -0.3988    2.0798 C   0  0  0  0  0  0
    4.9404   -1.0414    2.7431 O   0  0  0  0  0  0
    6.1968   -0.8403    2.2089 C   0  0  0  0  0  0
    3.5619    0.9064    2.4806 C   0  0  0  0  0  0
    4.2419    1.5134    3.5168 O   0  0  0  0  0  0
    3.8154    2.7888    3.8263 C   0  0  0  0  0  0
    2.5229    1.5976    1.8297 C   0  0  0  0  0  0
    1.8382    0.9831    0.7658 C   0  0  0  0  0  0
    2.2209   -0.3236    0.3867 C   0  0  0  0  0  0
    1.4862   -1.0246   -0.7592 C   0  0  1  0  0  0
    0.3098   -1.8694   -0.2342 C   0  0  0  0  0  0
   -0.2027   -2.8305   -1.2869 C   0  0  0  0  0  0
   -1.4662   -2.6621   -1.8907 C   0  0  0  0  0  0
   -1.9068   -3.5915   -2.8539 C   0  0  0  0  0  0
   -1.0987   -4.6924   -3.2039 C   0  0  0  0  0  0
   -1.5482   -5.6077   -4.1338 O   0  0  0  0  0  0
   -1.1516   -5.1997   -5.3660 C   0  0  0  0  0  0
   -0.5030   -4.1776   -5.5591 O   0  0  0  0  0  0
   -1.6310   -6.1827   -6.3926 C   0  0  0  0  0  0
   -2.3607   -7.2982   -5.9991 C   0  0  0  0  0  0
   -2.8049   -8.2091   -6.9502 C   0  0  0  0  0  0
   -2.5194   -8.0043   -8.2950 C   0  0  0  0  0  0
   -2.9860   -8.9612   -9.2941 N   0  3  0  0  0  0
   -2.7016   -8.7239  -10.4618 O   0  0  0  0  0  0
   -3.6236   -9.9229   -8.8830 O   0  5  0  0  0  0
   -1.7897   -6.8889   -8.6884 C   0  0  0  0  0  0
   -1.3455   -5.9780   -7.7373 C   0  0  0  0  0  0
    0.1566   -4.8781   -2.5934 C   0  0  0  0  0  0
    0.6033   -3.9290   -1.6467 C   0  0  0  0  0  0
    0.9153   -5.9738   -2.9374 O   0  0  0  0  0  0
    1.7476   -6.5159   -1.9891 C   0  0  0  0  0  0
    1.2373   -6.9817   -0.7592 C   0  0  0  0  0  0
    2.1114   -7.4518    0.2381 C   0  0  0  0  0  0
    3.5041   -7.4772    0.0074 C   0  0  0  0  0  0
    4.0104   -7.0583   -1.2424 C   0  0  0  0  0  0
    3.1333   -6.5766   -2.2342 C   0  0  0  0  0  0
    4.4448   -7.9484    1.1030 C   0  0  0  0  0  0
    5.2254   -6.8014    1.7997 C   0  0  2  0  0  0
    5.9857   -7.2932    2.9768 N   0  3  2  0  0  0
    6.3851   -8.6776    2.7414 C   0  0  0  0  0  0
    5.3078   -7.1830    4.2962 C   0  0  0  0  0  0
    3.8170   -6.8108    4.1900 C   0  0  0  0  0  0
    1.0510   -0.1344   -1.8666 N   0  3  1  0  0  0
   -0.2525   -0.6210   -2.3090 C   0  0  0  0  0  0
    0.9728    1.3146   -1.5686 C   0  0  0  0  0  0
    0.7307    1.5854   -0.0791 C   0  0  0  0  0  0
    6.8263   -6.7357    3.0406 H   0  0  0  0  0  0
    1.6936   -0.2563   -2.6366 H   0  0  0  0  0  0
    0.6312   -1.5256    4.3155 H   0  0  0  0  0  0
    0.5890   -3.2930    4.1087 H   0  0  0  0  0  0
    1.9205   -2.5344    5.0143 H   0  0  0  0  0  0
    2.2017   -4.4284    4.5065 H   0  0  0  0  0  0
    4.9772   -4.5102    0.3194 H   0  0  0  0  0  0
    6.9339   -1.3852    2.7987 H   0  0  0  0  0  0
    6.2162   -1.2006    1.1803 H   0  0  0  0  0  0
    6.4327    0.2237    2.2257 H   0  0  0  0  0  0
    4.4098    3.1803    4.6518 H   0  0  0  0  0  0
    3.9343    3.4331    2.9553 H   0  0  0  0  0  0
    2.7651    2.7603    4.1165 H   0  0  0  0  0  0
    2.2671    2.6003    2.1465 H   0  0  0  0  0  0
    2.2006   -1.7013   -1.2297 H   0  0  0  0  0  0
   -0.4983   -1.2415    0.1440 H   0  0  0  0  0  0
    0.6381   -2.4705    0.6161 H   0  0  0  0  0  0
   -2.1200   -1.8465   -1.6124 H   0  0  0  0  0  0
   -2.8782   -3.4768   -3.3154 H   0  0  0  0  0  0
   -2.5830   -7.4576   -4.9521 H   0  0  0  0  0  0
   -3.3729   -9.0775   -6.6438 H   0  0  0  0  0  0
   -1.5674   -6.7295   -9.7354 H   0  0  0  0  0  0
   -0.7774   -5.1095   -8.0437 H   0  0  0  0  0  0
    1.5642   -4.0661   -1.1707 H   0  0  0  0  0  0
    0.1724   -6.9544   -0.5745 H   0  0  0  0  0  0
    1.6965   -7.7824    1.1797 H   0  0  0  0  0  0
    5.0695   -7.0940   -1.4541 H   0  0  0  0  0  0
    3.5210   -6.2430   -3.1864 H   0  0  0  0  0  0
    5.1375   -8.6741    0.6734 H   0  0  0  0  0  0
    3.8514   -8.5078    1.8257 H   0  0  0  0  0  0
    5.9796   -6.4736    1.0817 H   0  0  0  0  0  0
    5.4965   -9.3046    2.6679 H   0  0  0  0  0  0
    6.9512   -8.7395    1.8121 H   0  0  0  0  0  0
    7.0056   -9.0225    3.5686 H   0  0  0  0  0  0
    5.8211   -6.4088    4.8696 H   0  0  0  0  0  0
    5.4319   -8.1114    4.8560 H   0  0  0  0  0  0
    3.2191   -7.6332    3.7963 H   0  0  0  0  0  0
    3.4211   -6.6134    5.1883 H   0  0  0  0  0  0
   -0.9763   -0.5059   -1.5022 H   0  0  0  0  0  0
   -0.5798   -0.0465   -3.1755 H   0  0  0  0  0  0
   -0.1746   -1.6740   -2.5796 H   0  0  0  0  0  0
    0.1931    1.7726   -2.1793 H   0  0  0  0  0  0
    1.9145    1.7809   -1.8646 H   0  0  0  0  0  0
    0.7014    2.6625    0.0974 H   0  0  0  0  0  0
   -0.2353    1.1981    0.2488 H   0  0  0  0  0  0
  1  2  1  0  0  0
  1 59  1  0  0  0
  1 60  1  0  0  0
  1 61  1  0  0  0
  2  3  1  0  0  0
  3  4  2  0  0  0
  3  8  1  0  0  0
  4  5  1  0  0  0
  4 62  1  0  0  0
  5  6  2  0  0  0
  5 52  1  0  0  0
  6  7  1  0  0  0
  6 48  1  0  0  0
  7  8  2  0  0  0
  7 63  1  0  0  0
  8  9  1  0  0  0
  9 10  1  0  0  0
 10 11  2  0  0  0
 10 19  1  0  0  0
 11 12  1  0  0  0
 11 14  1  0  0  0
 12 13  1  0  0  0
 13 64  1  0  0  0
 13 65  1  0  0  0
 13 66  1  0  0  0
 14 15  1  0  0  0
 14 17  2  0  0  0
 15 16  1  0  0  0
 16 67  1  0  0  0
 16 68  1  0  0  0
 16 69  1  0  0  0
 17 18  1  0  0  0
 17 70  1  0  0  0
 18 19  2  0  0  0
 18 56  1  0  0  0
 19 20  1  0  0  0
 20 21  1  0  0  0
 20 53  1  0  0  0
 20 71  1  0  0  0
 21 22  1  0  0  0
 21 72  1  0  0  0
 21 73  1  0  0  0
 22 23  2  0  0  0
 22 39  1  0  0  0
 23 24  1  0  0  0
 23 74  1  0  0  0
 24 25  2  0  0  0
 24 75  1  0  0  0
 25 26  1  0  0  0
 25 38  1  0  0  0
 26 27  1  0  0  0
 27 28  2  0  0  0
 27 29  1  0  0  0
 29 30  2  0  0  0
 29 37  1  0  0  0
 30 31  1  0  0  0
 30 76  1  0  0  0
 31 32  2  0  0  0
 31 77  1  0  0  0
 32 33  1  0  0  0
 32 36  1  0  0  0
 33 34  2  0  0  0
 33 35  1  0  0  0
 36 37  2  0  0  0
 36 78  1  0  0  0
 37 79  1  0  0  0
 38 39  2  0  0  0
 38 40  1  0  0  0
 39 80  1  0  0  0
 40 41  1  0  0  0
 41 42  2  0  0  0
 41 46  1  0  0  0
 42 43  1  0  0  0
 42 81  1  0  0  0
 43 44  2  0  0  0
 43 82  1  0  0  0
 44 45  1  0  0  0
 44 47  1  0  0  0
 45 46  2  0  0  0
 45 83  1  0  0  0
 46 84  1  0  0  0
 47 48  1  0  0  0
 47 85  1  0  0  0
 47 86  1  0  0  0
 48 49  1  0  0  0
 48 87  1  0  0  0
 49 50  1  0  0  0
 49 51  1  0  0  0
 49 57  1  0  0  0
 50 88  1  0  0  0
 50 89  1  0  0  0
 50 90  1  0  0  0
 51 52  1  0  0  0
 51 91  1  0  0  0
 51 92  1  0  0  0
 52 93  1  0  0  0
 52 94  1  0  0  0
 53 54  1  0  0  0
 53 55  1  0  0  0
 53 58  1  0  0  0
 54 95  1  0  0  0
 54 96  1  0  0  0
 54 97  1  0  0  0
 55 56  1  0  0  0
 55 98  1  0  0  0
 55 99  1  0  0  0
 56100  1  0  0  0
 56101  1  0  0  0
M  CHG  4  33   1  35  -1  49   1  53   1
M  END
$$$$
Hexamethyleneamiloride
                    3D
 Schrodinger Suite 2021-2.
 40 41  0  0  1  0            999 V2000
    4.7310   -8.0920    4.6777 N   0  0  0  0  0  0
    3.4334   -7.4570    4.8885 C   0  0  0  0  0  0
    2.4534   -7.9613    5.8460 N   0  0  0  0  0  0
    3.1344   -6.3847    4.1859 N   0  3  0  0  0  0
    4.0710   -5.8308    3.2125 C   0  0  0  0  0  0
    5.1729   -6.3337    3.0040 O   0  0  0  0  0  0
    3.5998   -4.6074    2.4836 C   0  0  0  0  0  0
    2.3612   -4.1253    2.7855 N   0  0  0  0  0  0
    1.9431   -3.0139    2.1178 C   0  0  0  0  0  0
    0.3824   -2.3651    2.4646 Cl  0  0  0  0  0  0
    2.7580   -2.3967    1.1612 C   0  0  0  0  0  0
    2.2958   -1.2060    0.4538 N   0  0  0  0  0  0
    1.2258   -1.5861   -0.4615 C   0  0  0  0  0  0
    1.0998   -0.6598   -1.6848 C   0  0  0  0  0  0
    0.5205    0.7453   -1.4242 C   0  0  0  0  0  0
    1.2592    1.5767   -0.3586 C   0  0  0  0  0  0
    1.1125    1.0107    1.0684 C   0  0  0  0  0  0
    2.0350   -0.1662    1.4473 C   0  0  0  0  0  0
    3.9982   -2.8761    0.8562 N   0  0  0  0  0  0
    4.4110   -3.9878    1.5272 C   0  0  0  0  0  0
    5.7354   -4.5179    1.2162 N   0  0  0  0  0  0
    5.3938   -7.6979    3.9873 H   0  0  0  0  0  0
    4.9882   -8.9361    5.2186 H   0  0  0  0  0  0
    1.5458   -7.4773    5.9609 H   0  0  0  0  0  0
    2.6661   -8.8029    6.4097 H   0  0  0  0  0  0
    0.2750   -1.6664    0.0704 H   0  0  0  0  0  0
    1.4474   -2.5919   -0.8242 H   0  0  0  0  0  0
    0.4637   -1.1542   -2.4205 H   0  0  0  0  0  0
    2.0752   -0.5683   -2.1654 H   0  0  0  0  0  0
   -0.5311    0.6552   -1.1458 H   0  0  0  0  0  0
    0.5234    1.2986   -2.3649 H   0  0  0  0  0  0
    0.8439    2.5859   -0.3726 H   0  0  0  0  0  0
    2.3137    1.6858   -0.6186 H   0  0  0  0  0  0
    0.0747    0.7143    1.2285 H   0  0  0  0  0  0
    1.2874    1.8111    1.7889 H   0  0  0  0  0  0
    3.0048    0.2275    1.7583 H   0  0  0  0  0  0
    1.6228   -0.6461    2.3375 H   0  0  0  0  0  0
    6.0831   -5.3609    1.7055 H   0  0  0  0  0  0
    6.3263   -4.0506    0.5064 H   0  0  0  0  0  0
    2.2425   -5.9105    4.3002 H   0  0  0  0  0  0
  1  2  1  0  0  0
  1 22  1  0  0  0
  1 23  1  0  0  0
  2  3  1  0  0  0
  2  4  2  3  0  0
  3 24  1  0  0  0
  3 25  1  0  0  0
  4  5  1  0  0  0
  4 40  1  0  0  0
  5  6  2  0  0  0
  5  7  1  0  0  0
  7  8  2  0  0  0
  7 20  1  0  0  0
  8  9  1  0  0  0
  9 10  1  0  0  0
  9 11  2  0  0  0
 11 12  1  0  0  0
 11 19  1  0  0  0
 12 13  1  0  0  0
 12 18  1  0  0  0
 13 14  1  0  0  0
 13 26  1  0  0  0
 13 27  1  0  0  0
 14 15  1  0  0  0
 14 28  1  0  0  0
 14 29  1  0  0  0
 15 16  1  0  0  0
 15 30  1  0  0  0
 15 31  1  0  0  0
 16 17  1  0  0  0
 16 32  1  0  0  0
 16 33  1  0  0  0
 17 18  1  0  0  0
 17 34  1  0  0  0
 17 35  1  0  0  0
 18 36  1  0  0  0
 18 37  1  0  0  0
 19 20  2  0  0  0
 20 21  1  0  0  0
 21 38  1  0  0  0
 21 39  1  0  0  0
M  CHG  1   4   1
M  END
$$$$
Phenoxybenzamine
                    3D
 Schrodinger Suite 2021-2.
 44 45  0  0  1  0            999 V2000
    5.0127   -2.0259   -2.1309 C   0  0  0  0  0  0
    3.9874   -1.2406   -1.3681 C   0  0  1  0  0  0
    3.3174   -2.1336   -0.3663 C   0  0  0  0  0  0
    4.2606   -2.6314    0.5094 O   0  0  0  0  0  0
    3.7644   -3.4721    1.4850 C   0  0  0  0  0  0
    4.6240   -4.0327    2.4221 C   0  0  0  0  0  0
    4.1244   -4.8793    3.4045 C   0  0  0  0  0  0
    2.7650   -5.1654    3.4498 C   0  0  0  0  0  0
    1.9054   -4.6047    2.5126 C   0  0  0  0  0  0
    2.4051   -3.7581    1.5301 C   0  0  0  0  0  0
    4.6394   -0.1338   -0.6741 N   0  3  2  0  0  0
    3.6414    0.6305    0.0684 C   0  0  0  0  0  0
    2.6162    1.1717   -0.8834 C   0  0  0  0  0  0
    1.0155    0.5321   -0.4356 Cl  0  0  0  0  0  0
    5.2915    0.7354   -1.6493 C   0  0  0  0  0  0
    4.7129    2.1160   -1.5542 C   0  0  0  0  0  0
    5.2777    3.0484   -0.6922 C   0  0  0  0  0  0
    4.7416    4.3276   -0.6041 C   0  0  0  0  0  0
    3.6406    4.6744   -1.3781 C   0  0  0  0  0  0
    3.0757    3.7420   -2.2402 C   0  0  0  0  0  0
    3.6119    2.4628   -2.3282 C   0  0  0  0  0  0
    5.3297   -0.4982   -0.0332 H   0  0  0  0  0  0
    4.5259   -2.8522   -2.6490 H   0  0  0  0  0  0
    5.4995   -1.3769   -2.8590 H   0  0  0  0  0  0
    5.7576   -2.4191   -1.4393 H   0  0  0  0  0  0
    3.2423   -0.8473   -2.0598 H   0  0  0  0  0  0
    2.8306   -2.9598   -0.8843 H   0  0  0  0  0  0
    2.5723   -1.5629    0.1881 H   0  0  0  0  0  0
    5.6823   -3.8100    2.3869 H   0  0  0  0  0  0
    4.7936   -5.3157    4.1342 H   0  0  0  0  0  0
    2.3760   -5.8246    4.2147 H   0  0  0  0  0  0
    0.8471   -4.8274    2.5478 H   0  0  0  0  0  0
    1.7357   -3.3217    0.8005 H   0  0  0  0  0  0
    4.1282    1.4568    0.5865 H   0  0  0  0  0  0
    3.1545   -0.0184    0.7964 H   0  0  0  0  0  0
    2.8510    0.8588   -1.9008 H   0  0  0  0  0  0
    2.5919    2.2599   -0.8251 H   0  0  0  0  0  0
    5.1293    0.3417   -2.6526 H   0  0  0  0  0  0
    6.3611    0.7747   -1.4429 H   0  0  0  0  0  0
    6.1350    2.7784   -0.0896 H   0  0  0  0  0  0
    5.1814    5.0536    0.0670 H   0  0  0  0  0  0
    3.2232    5.6704   -1.3095 H   0  0  0  0  0  0
    2.2186    4.0121   -2.8428 H   0  0  0  0  0  0
    3.1721    1.7369   -2.9994 H   0  0  0  0  0  0
  1  2  1  0  0  0
  1 23  1  0  0  0
  1 24  1  0  0  0
  1 25  1  0  0  0
  2  3  1  0  0  0
  2 11  1  0  0  0
  2 26  1  0  0  0
  3  4  1  0  0  0
  3 27  1  0  0  0
  3 28  1  0  0  0
  4  5  1  0  0  0
  5  6  2  0  0  0
  5 10  1  0  0  0
  6  7  1  0  0  0
  6 29  1  0  0  0
  7  8  2  0  0  0
  7 30  1  0  0  0
  8  9  1  0  0  0
  8 31  1  0  0  0
  9 10  2  0  0  0
  9 32  1  0  0  0
 10 33  1  0  0  0
 11 12  1  0  0  0
 11 15  1  0  0  0
 11 22  1  0  0  0
 12 13  1  0  0  0
 12 34  1  0  0  0
 12 35  1  0  0  0
 13 14  1  0  0  0
 13 36  1  0  0  0
 13 37  1  0  0  0
 15 16  1  0  0  0
 15 38  1  0  0  0
 15 39  1  0  0  0
 16 17  2  0  0  0
 16 21  1  0  0  0
 17 18  1  0  0  0
 17 40  1  0  0  0
 18 19  2  0  0  0
 18 41  1  0  0  0
 19 20  1  0  0  0
 19 42  1  0  0  0
 20 21  2  0  0  0
 20 43  1  0  0  0
 21 44  1  0  0  0
M  CHG  1  11   1
M  END
$$$$
Carvedilol_derivate_13
                    3D
 Schrodinger Suite 2021-2.
 56 59  0  0  1  0            999 V2000
    0.7921    0.0870    0.0599 C   0  0  0  0  0  0
    2.0712    0.3043    0.5302 O   0  0  0  0  0  0
    2.2604    0.0068    1.8644 C   0  0  0  0  0  0
    1.2017   -0.4733    2.6263 C   0  0  0  0  0  0
    1.3923   -0.7730    3.9700 C   0  0  0  0  0  0
    2.6415   -0.5926    4.5518 C   0  0  0  0  0  0
    3.7002   -0.1125    3.7899 C   0  0  0  0  0  0
    3.5096    0.1872    2.4463 C   0  0  0  0  0  0
    4.5607    0.6639    1.6898 O   0  0  0  0  0  0
    5.7531    0.8034    2.3705 C   0  0  0  0  0  0
    6.8039    1.3262    1.4365 C   0  0  0  0  0  0
    6.9816    0.3898    0.3305 N   0  3  0  0  0  0
    7.3978   -0.9081    0.8539 C   0  0  0  0  0  0
    7.5804   -1.8702   -0.2824 C   0  0  0  0  0  0
    6.2844   -2.0218   -1.0223 C   0  0  0  0  0  0
    5.3176   -2.5029   -0.1630 O   0  0  0  0  0  0
    4.0727   -2.6861   -0.7295 C   0  0  0  0  0  0
    3.8630   -2.3910   -2.0751 C   0  0  0  0  0  0
    2.6136   -2.5709   -2.6589 C   0  0  0  0  0  0
    1.5274   -3.0508   -1.9258 C   0  0  0  0  0  0
    1.7372   -3.3468   -0.5767 C   0  0  0  0  0  0
    0.8738   -3.8274    0.3862 N   0  0  0  0  0  0
    1.5341   -3.9657    1.5897 C   0  0  0  0  0  0
    1.0813   -4.4106    2.8341 C   0  0  0  0  0  0
    2.0003   -4.4400    3.8839 C   0  0  0  0  0  0
    3.3212   -4.0424    3.7060 C   0  0  0  0  0  0
    3.7734   -3.5986    2.4649 C   0  0  0  0  0  0
    2.8759   -3.5560    1.3865 C   0  0  0  0  0  0
    3.0023   -3.1708    0.0381 C   0  0  0  0  0  0
    0.7440    0.3497   -0.9969 H   0  0  0  0  0  0
    0.0893    0.7037    0.6200 H   0  0  0  0  0  0
    0.5328   -0.9643    0.1851 H   0  0  0  0  0  0
    0.2291   -0.6138    2.1733 H   0  0  0  0  0  0
    0.5681   -1.1468    4.5631 H   0  0  0  0  0  0
    2.7900   -0.8259    5.5979 H   0  0  0  0  0  0
    4.6727    0.0279    4.2429 H   0  0  0  0  0  0
    5.6204    1.5025    3.1961 H   0  0  0  0  0  0
    6.0638   -0.1656    2.7613 H   0  0  0  0  0  0
    6.4930    2.2952    1.0457 H   0  0  0  0  0  0
    7.7456    1.4364    1.9741 H   0  0  0  0  0  0
    6.1088    0.2877   -0.1677 H   0  0  0  0  0  0
    8.3396   -0.7979    1.3916 H   0  0  0  0  0  0
    6.6343   -1.2880    1.5326 H   0  0  0  0  0  0
    8.3440   -1.4902   -0.9611 H   0  0  0  0  0  0
    7.8912   -2.8391    0.1084 H   0  0  0  0  0  0
    5.9735   -1.0528   -1.4130 H   0  0  0  0  0  0
    6.4170   -2.7209   -1.8480 H   0  0  0  0  0  0
    4.6817   -2.0165   -2.6765 H   0  0  0  0  0  0
    2.4835   -2.3323   -3.7070 H   0  0  0  0  0  0
    0.5613   -3.1860   -2.3926 H   0  0  0  0  0  0
   -0.1023   -4.0467    0.2320 H   0  0  0  0  0  0
    0.0571   -4.7226    2.9866 H   0  0  0  0  0  0
    1.6805   -4.7796    4.8609 H   0  0  0  0  0  0
    4.0049   -4.0793    4.5446 H   0  0  0  0  0  0
    4.8027   -3.2917    2.3374 H   0  0  0  0  0  0
    7.6891    0.7418   -0.2984 H   0  0  0  0  0  0
  1  2  1  0  0  0
  1 30  1  0  0  0
  1 31  1  0  0  0
  1 32  1  0  0  0
  2  3  1  0  0  0
  3  4  2  0  0  0
  3  8  1  0  0  0
  4  5  1  0  0  0
  4 33  1  0  0  0
  5  6  2  0  0  0
  5 34  1  0  0  0
  6  7  1  0  0  0
  6 35  1  0  0  0
  7  8  2  0  0  0
  7 36  1  0  0  0
  8  9  1  0  0  0
  9 10  1  0  0  0
 10 11  1  0  0  0
 10 37  1  0  0  0
 10 38  1  0  0  0
 11 12  1  0  0  0
 11 39  1  0  0  0
 11 40  1  0  0  0
 12 13  1  0  0  0
 12 41  1  0  0  0
 12 56  1  0  0  0
 13 14  1  0  0  0
 13 42  1  0  0  0
 13 43  1  0  0  0
 14 15  1  0  0  0
 14 44  1  0  0  0
 14 45  1  0  0  0
 15 16  1  0  0  0
 15 46  1  0  0  0
 15 47  1  0  0  0
 16 17  1  0  0  0
 17 18  2  0  0  0
 17 29  1  0  0  0
 18 19  1  0  0  0
 18 48  1  0  0  0
 19 20  2  0  0  0
 19 49  1  0  0  0
 20 21  1  0  0  0
 20 50  1  0  0  0
 21 22  1  0  0  0
 21 29  2  0  0  0
 22 23  1  0  0  0
 22 51  1  0  0  0
 23 24  2  0  0  0
 23 28  1  0  0  0
 24 25  1  0  0  0
 24 52  1  0  0  0
 25 26  2  0  0  0
 25 53  1  0  0  0
 26 27  1  0  0  0
 26 54  1  0  0  0
 27 28  2  0  0  0
 27 55  1  0  0  0
 28 29  1  0  0  0
M  CHG  1  12   1
M  END
$$$$
