UoS-7692
                    3D
 Schrodinger Suite 2021-2.
 49 52  0  0  1  0            999 V2000
   -2.0011    1.2560    2.1837 O   0  0  0  0  0  0
   -1.8046    0.0449    2.1119 C   0  0  0  0  0  0
   -0.4398   -0.5547    2.2782 C   0  0  0  0  0  0
    0.4542   -0.0212    1.2545 N   0  3  1  0  0  0
   -0.3289    0.9268    0.3191 C   0  0  0  0  0  0
    0.6270    1.4827   -0.7537 C   0  0  0  0  0  0
    1.8624    2.1612   -0.1322 C   0  0  2  0  0  0
    2.7928    2.6273   -1.2126 C   0  0  0  0  0  0
    3.2571    1.4781   -1.9841 N   0  0  0  0  0  0
    4.3869    0.7615   -1.6712 C   0  0  0  0  0  0
    4.6151   -0.2295   -2.4994 N   0  0  0  0  0  0
    3.5855   -0.1669   -3.4064 C   0  0  0  0  0  0
    3.3224   -0.9817   -4.5134 C   0  0  0  0  0  0
    2.1953   -0.7097   -5.2922 C   0  0  0  0  0  0
    1.3450    0.3502   -4.9795 C   0  0  0  0  0  0
    1.5788    1.1828   -3.8815 C   0  0  0  0  0  0
    2.7074    0.9049   -3.1075 C   0  0  0  0  0  0
    2.6028    1.2157    0.8326 C   0  0  0  0  0  0
    1.6703    0.6568    1.9242 C   0  0  0  0  0  0
   -2.9138   -0.9310    1.8523 C   0  0  0  0  0  0
   -2.6392   -2.2981    1.7797 C   0  0  0  0  0  0
   -3.6729   -3.2055    1.5380 C   0  0  0  0  0  0
   -4.9802   -2.7473    1.3688 C   0  0  0  0  0  0
   -5.9760   -3.6333    1.1350 F   0  0  0  0  0  0
   -5.2551   -1.3783    1.4415 C   0  0  0  0  0  0
   -6.5197   -0.9251    1.2788 F   0  0  0  0  0  0
   -4.2217   -0.4719    1.6832 C   0  0  0  0  0  0
    0.7621   -0.8315    0.7347 H   0  0  0  0  0  0
   -0.5039   -1.6380    2.1758 H   0  0  0  0  0  0
   -0.0512   -0.3054    3.2656 H   0  0  0  0  0  0
   -0.7547    1.7130    0.9471 H   0  0  0  0  0  0
   -1.1488    0.3485   -0.1131 H   0  0  0  0  0  0
    0.0900    2.1954   -1.3828 H   0  0  0  0  0  0
    0.9371    0.6788   -1.4244 H   0  0  0  0  0  0
    1.5560    3.0642    0.4012 H   0  0  0  0  0  0
    3.6476    3.1324   -0.7629 H   0  0  0  0  0  0
    2.2673    3.3188   -1.8711 H   0  0  0  0  0  0
    4.9874    1.0406   -0.8096 H   0  0  0  0  0  0
    3.9797   -1.8035   -4.7577 H   0  0  0  0  0  0
    1.9763   -1.3296   -6.1523 H   0  0  0  0  0  0
    0.4806    0.5312   -5.6059 H   0  0  0  0  0  0
    0.9128    2.0022   -3.6479 H   0  0  0  0  0  0
    3.4350    1.7435    1.3029 H   0  0  0  0  0  0
    3.0570    0.3924    0.2776 H   0  0  0  0  0  0
    2.1599   -0.0985    2.5434 H   0  0  0  0  0  0
    1.2780    1.4383    2.5791 H   0  0  0  0  0  0
   -1.6262   -2.6549    1.9107 H   0  0  0  0  0  0
   -3.4649   -4.2647    1.4811 H   0  0  0  0  0  0
   -4.4387    0.5856    1.7385 H   0  0  0  0  0  0
  1  2  2  0  0  0
  2  3  1  0  0  0
  2 20  1  0  0  0
  3  4  1  0  0  0
  3 29  1  0  0  0
  3 30  1  0  0  0
  4  5  1  0  0  0
  4 19  1  0  0  0
  4 28  1  0  0  0
  5  6  1  0  0  0
  5 31  1  0  0  0
  5 32  1  0  0  0
  6  7  1  0  0  0
  6 33  1  0  0  0
  6 34  1  0  0  0
  7  8  1  0  0  0
  7 18  1  0  0  0
  7 35  1  0  0  0
  8  9  1  0  0  0
  8 36  1  0  0  0
  8 37  1  0  0  0
  9 10  1  0  0  0
  9 17  1  0  0  0
 10 11  2  0  0  0
 10 38  1  0  0  0
 11 12  1  0  0  0
 12 13  2  0  0  0
 12 17  1  0  0  0
 13 14  1  0  0  0
 13 39  1  0  0  0
 14 15  2  0  0  0
 14 40  1  0  0  0
 15 16  1  0  0  0
 15 41  1  0  0  0
 16 17  2  0  0  0
 16 42  1  0  0  0
 18 19  1  0  0  0
 18 43  1  0  0  0
 18 44  1  0  0  0
 19 45  1  0  0  0
 19 46  1  0  0  0
 20 21  2  0  0  0
 20 27  1  0  0  0
 21 22  1  0  0  0
 21 47  1  0  0  0
 22 23  2  0  0  0
 22 48  1  0  0  0
 23 24  1  0  0  0
 23 25  1  0  0  0
 25 26  1  0  0  0
 25 27  2  0  0  0
 27 49  1  0  0  0
M  CHG  1   4   1
M  END
$$$$
UoS-3607
                    3D
 Schrodinger Suite 2021-2.
 50 53  0  0  1  0            999 V2000
   -1.6480    1.0876    1.8105 O   0  0  0  0  0  0
   -0.9392    0.0854    1.8105 C   0  0  0  0  0  0
    0.5608    0.0854    1.8105 C   0  0  0  0  0  0
    1.0475    1.2775    1.1222 N   0  3  2  0  0  0
    0.4863    1.3160   -0.3168 C   0  0  0  0  0  0
    1.0093    2.5774   -1.0303 C   0  0  0  0  0  0
    2.5470    2.6644   -0.9984 C   0  0  2  0  0  0
    3.1320    1.5584   -1.8257 C   0  0  0  0  0  0
    2.9189    1.3343   -3.1002 N   0  0  0  0  0  0
    3.6712    0.2213   -3.3867 C   0  0  0  0  0  0
    3.8241   -0.4635   -4.5975 C   0  0  0  0  0  0
    4.6573   -1.5840   -4.6326 C   0  0  0  0  0  0
    5.3264   -2.0175   -3.4886 C   0  0  0  0  0  0
    5.1956   -1.3567   -2.2640 C   0  0  0  0  0  0
    4.3610   -0.2374   -2.2366 C   0  0  0  0  0  0
    3.9882    0.6491   -1.2528 N   0  0  0  0  0  0
    3.0897    2.5774    0.4407 C   0  0  0  0  0  0
    2.5912    1.3160    1.1716 C   0  0  0  0  0  0
   -1.4350   -1.1523    1.8105 N   0  0  0  0  0  0
   -2.8536   -1.4974    1.8105 C   0  0  0  0  0  0
   -3.2616   -2.7606    1.3988 C   0  0  0  0  0  0
   -4.6120   -3.0891    1.3988 C   0  0  0  0  0  0
   -5.5546   -2.1543    1.8105 C   0  0  0  0  0  0
   -5.1466   -0.8911    2.2221 C   0  0  0  0  0  0
   -6.1367    0.0909    2.6546 N   0  3  0  0  0  0
   -5.7130    1.1855    3.0052 O   0  0  0  0  0  0
   -7.3101   -0.2602    2.6313 O   0  5  0  0  0  0
   -3.7962   -0.5626    2.2221 C   0  0  0  0  0  0
    0.6723    2.0516    1.6528 H   0  0  0  0  0  0
    0.9241   -0.8046    1.2966 H   0  0  0  0  0  0
    0.9241    0.0854    2.8381 H   0  0  0  0  0  0
   -0.6033    1.3036   -0.2383 H   0  0  0  0  0  0
    0.8072    0.3945   -0.8082 H   0  0  0  0  0  0
    0.5728    3.4680   -0.5738 H   0  0  0  0  0  0
    0.6595    2.5795   -2.0647 H   0  0  0  0  0  0
    2.8804    3.5916   -1.4699 H   0  0  0  0  0  0
    3.3068   -0.1295   -5.4852 H   0  0  0  0  0  0
    4.7873   -2.1259   -5.5607 H   0  0  0  0  0  0
    5.9640   -2.8902   -3.5534 H   0  0  0  0  0  0
    5.7192   -1.7014   -1.3827 H   0  0  0  0  0  0
    4.2611    0.6756   -0.2752 H   0  0  0  0  0  0
    2.8048    3.4679    1.0045 H   0  0  0  0  0  0
    4.1814    2.5795    0.4258 H   0  0  0  0  0  0
    2.8804    1.3036    2.2251 H   0  0  0  0  0  0
    2.9475    0.3945    0.7053 H   0  0  0  0  0  0
   -0.8898   -2.0025    1.8105 H   0  0  0  0  0  0
   -2.5278   -3.4884    1.0783 H   0  0  0  0  0  0
   -4.9296   -4.0725    1.0783 H   0  0  0  0  0  0
   -6.6060   -2.4100    1.8105 H   0  0  0  0  0  0
   -3.4786    0.4209    2.5426 H   0  0  0  0  0  0
  1  2  2  0  0  0
  2  3  1  0  0  0
  2 19  1  0  0  0
  3  4  1  0  0  0
  3 30  1  0  0  0
  3 31  1  0  0  0
  4  5  1  0  0  0
  4 18  1  0  0  0
  4 29  1  0  0  0
  5  6  1  0  0  0
  5 32  1  0  0  0
  5 33  1  0  0  0
  6  7  1  0  0  0
  6 34  1  0  0  0
  6 35  1  0  0  0
  7  8  1  0  0  0
  7 17  1  0  0  0
  7 36  1  0  0  0
  8  9  2  0  0  0
  8 16  1  0  0  0
  9 10  1  0  0  0
 10 11  2  0  0  0
 10 15  1  0  0  0
 11 12  1  0  0  0
 11 37  1  0  0  0
 12 13  2  0  0  0
 12 38  1  0  0  0
 13 14  1  0  0  0
 13 39  1  0  0  0
 14 15  2  0  0  0
 14 40  1  0  0  0
 15 16  1  0  0  0
 16 41  1  0  0  0
 17 18  1  0  0  0
 17 42  1  0  0  0
 17 43  1  0  0  0
 18 44  1  0  0  0
 18 45  1  0  0  0
 19 20  1  0  0  0
 19 46  1  0  0  0
 20 21  2  0  0  0
 20 28  1  0  0  0
 21 22  1  0  0  0
 21 47  1  0  0  0
 22 23  2  0  0  0
 22 48  1  0  0  0
 23 24  1  0  0  0
 23 49  1  0  0  0
 24 25  1  0  0  0
 24 28  2  0  0  0
 25 26  2  0  0  0
 25 27  1  0  0  0
 28 50  1  0  0  0
M  CHG  3   4   1  25   1  27  -1
M  END
$$$$
UoS-962
                    3D
 Schrodinger Suite 2021-2.
 50 52  0  0  1  0            999 V2000
   -2.6909    3.0093   -0.8819 O   0  0  0  0  0  0
   -1.8839    2.0379   -0.3257 C   0  0  2  0  0  0
   -2.4975    1.5501    0.9532 C   0  0  0  0  0  0
   -1.6904    0.5786    1.5094 O   0  0  0  0  0  0
   -2.1507    0.0479    2.6972 C   0  0  0  0  0  0
   -3.3660   -0.7906    2.4327 C   0  0  0  0  0  0
   -3.2242   -2.1473    2.1500 C   0  0  0  0  0  0
   -4.3451   -2.9348    1.9030 C   0  0  0  0  0  0
   -5.6086   -2.3550    1.9409 C   0  0  0  0  0  0
   -7.0068   -3.3197    1.6366 Cl  0  0  0  0  0  0
   -5.7494   -0.9990    2.2234 C   0  0  0  0  0  0
   -4.6299   -0.2095    2.4709 C   0  0  0  0  0  0
   -0.5291    2.6157   -0.0418 C   0  0  0  0  0  0
    0.0681    3.0905   -1.2866 N   0  3  0  0  0  0
    0.1101    1.9544   -2.3320 C   0  0  0  0  0  0
    0.8400    2.4350   -3.6069 C   0  0  0  0  0  0
    2.1701    2.9777   -3.3082 N   0  0  0  0  0  0
    3.0809    1.9282   -2.8607 C   0  0  0  0  0  0
    2.8480    0.5961   -3.1986 C   0  0  0  0  0  0
    3.7319   -0.3896   -2.7598 C   0  0  0  0  0  0
    4.8309   -0.0135   -1.9906 C   0  0  0  0  0  0
    5.0001    1.3376   -1.6914 C   0  0  0  0  0  0
    4.1471    2.3079   -2.1123 N   0  0  0  0  0  0
    2.1338    4.0919   -2.3542 C   0  0  0  0  0  0
    1.4659    3.6907   -1.0193 C   0  0  0  0  0  0
   -0.5502    3.8199   -1.6127 H   0  0  0  0  0  0
   -3.0383    2.7981   -1.7954 H   0  0  0  0  0  0
   -1.7851    1.2052   -1.0220 H   0  0  0  0  0  0
   -3.4820    1.1302    0.7469 H   0  0  0  0  0  0
   -2.5963    2.3828    1.6496 H   0  0  0  0  0  0
   -2.4090    0.8568    3.3807 H   0  0  0  0  0  0
   -1.3726   -0.5709    3.1444 H   0  0  0  0  0  0
   -2.2387   -2.5921    2.1220 H   0  0  0  0  0  0
   -4.2366   -3.9874    1.6836 H   0  0  0  0  0  0
   -6.7356   -0.5580    2.2506 H   0  0  0  0  0  0
   -4.7424    0.8436    2.6902 H   0  0  0  0  0  0
    0.1083    1.8483    0.3976 H   0  0  0  0  0  0
   -0.6279    3.4484    0.6547 H   0  0  0  0  0  0
   -0.9215    1.6582   -2.5334 H   0  0  0  0  0  0
    0.6133    1.1047   -1.8658 H   0  0  0  0  0  0
    0.2350    3.1824   -4.1279 H   0  0  0  0  0  0
    0.9311    1.6005   -4.3075 H   0  0  0  0  0  0
    1.9874    0.3303   -3.7971 H   0  0  0  0  0  0
    3.5669   -1.4283   -3.0124 H   0  0  0  0  0  0
    5.5366   -0.7509   -1.6332 H   0  0  0  0  0  0
    5.8460    1.6584   -1.0950 H   0  0  0  0  0  0
    1.6139    4.9483   -2.7928 H   0  0  0  0  0  0
    3.1507    4.4429   -2.1584 H   0  0  0  0  0  0
    2.0438    2.9366   -0.4808 H   0  0  0  0  0  0
    1.3321    4.5442   -0.3513 H   0  0  0  0  0  0
  1  2  1  0  0  0
  1 27  1  0  0  0
  2  3  1  0  0  0
  2 13  1  0  0  0
  2 28  1  0  0  0
  3  4  1  0  0  0
  3 29  1  0  0  0
  3 30  1  0  0  0
  4  5  1  0  0  0
  5  6  1  0  0  0
  5 31  1  0  0  0
  5 32  1  0  0  0
  6  7  2  0  0  0
  6 12  1  0  0  0
  7  8  1  0  0  0
  7 33  1  0  0  0
  8  9  2  0  0  0
  8 34  1  0  0  0
  9 10  1  0  0  0
  9 11  1  0  0  0
 11 12  2  0  0  0
 11 35  1  0  0  0
 12 36  1  0  0  0
 13 14  1  0  0  0
 13 37  1  0  0  0
 13 38  1  0  0  0
 14 15  1  0  0  0
 14 25  1  0  0  0
 14 26  1  0  0  0
 15 16  1  0  0  0
 15 39  1  0  0  0
 15 40  1  0  0  0
 16 17  1  0  0  0
 16 41  1  0  0  0
 16 42  1  0  0  0
 17 18  1  0  0  0
 17 24  1  0  0  0
 18 19  2  0  0  0
 18 23  1  0  0  0
 19 20  1  0  0  0
 19 43  1  0  0  0
 20 21  2  0  0  0
 20 44  1  0  0  0
 21 22  1  0  0  0
 21 45  1  0  0  0
 22 23  2  0  0  0
 22 46  1  0  0  0
 24 25  1  0  0  0
 24 47  1  0  0  0
 24 48  1  0  0  0
 25 49  1  0  0  0
 25 50  1  0  0  0
M  CHG  1  14   1
M  END
$$$$
Proto_1
                    3D
 Schrodinger Suite 2021-2.
 45 47  0  0  1  0            999 V2000
   -8.9620   -2.5463    3.0597 C   0  0  0  0  0  0
   -8.1102   -2.9711    1.9004 C   0  0  0  0  0  0
   -6.7476   -2.4836    2.0933 N   0  3  2  0  0  0
   -6.7538   -0.9516    2.2960 C   0  0  0  0  0  0
   -5.3409   -0.4534    2.6985 C   0  0  0  0  0  0
   -4.2535   -1.1516    1.8929 C   0  0  0  0  0  0
   -4.5041   -2.2802    1.1046 C   0  0  0  0  0  0
   -3.0621   -2.8690    0.3333 S   0  0  0  0  0  0
   -2.1292   -1.6042    1.0559 C   0  0  0  0  0  0
   -0.6963   -1.5118    0.7913 N   0  0  0  0  0  0
   -0.1373   -0.8270   -0.2010 C   0  0  0  0  0  0
   -0.7775   -0.1820   -1.0234 O   0  0  0  0  0  0
    1.1886   -0.9150   -0.2081 N   0  0  0  0  0  0
    2.0759   -0.2729   -1.1734 C   0  0  0  0  0  0
    3.4200   -0.0831   -0.8606 C   0  0  0  0  0  0
    4.2749    0.5280   -1.7735 C   0  0  0  0  0  0
    3.7750    0.9477   -3.0015 C   0  0  0  0  0  0
    4.8238    1.7067   -4.1427 Cl  0  0  0  0  0  0
    2.4315    0.7577   -3.3134 C   0  0  0  0  0  0
    1.5748    0.1469   -2.4020 C   0  0  0  0  0  0
   -2.9046   -0.7758    1.8544 C   0  0  0  0  0  0
   -2.3530    0.3987    2.6070 C   0  0  0  0  0  0
   -2.5414    0.2780    3.9215 N   0  0  0  0  0  0
   -1.7924    1.3657    2.0999 O   0  0  0  0  0  0
   -5.8684   -2.9196    0.9011 C   0  0  0  0  0  0
   -6.4244   -2.9378    2.9361 H   0  0  0  0  0  0
   -9.9793   -2.9102    2.9157 H   0  0  0  0  0  0
   -8.5547   -2.9616    3.9815 H   0  0  0  0  0  0
   -8.9712   -1.4583    3.1245 H   0  0  0  0  0  0
   -8.5177   -2.5558    0.9788 H   0  0  0  0  0  0
   -8.1011   -4.0591    1.8357 H   0  0  0  0  0  0
   -7.4990   -0.7424    3.0673 H   0  0  0  0  0  0
   -7.1026   -0.5143    1.3567 H   0  0  0  0  0  0
   -5.1771   -0.6255    3.7634 H   0  0  0  0  0  0
   -5.2847    0.6286    2.5690 H   0  0  0  0  0  0
   -0.1994   -2.0512    1.4827 H   0  0  0  0  0  0
    1.7442   -1.4358    0.4523 H   0  0  0  0  0  0
    3.8026   -0.4119    0.0962 H   0  0  0  0  0  0
    5.3178    0.6758   -1.5322 H   0  0  0  0  0  0
    2.0529    1.0875   -4.2704 H   0  0  0  0  0  0
    0.5316    0.0006   -2.6472 H   0  0  0  0  0  0
   -2.2520    0.9483    4.6195 H   0  0  0  0  0  0
   -2.9965   -0.4985    4.3800 H   0  0  0  0  0  0
   -6.3695   -2.5928   -0.0128 H   0  0  0  0  0  0
   -5.8475   -4.0118    0.9157 H   0  0  0  0  0  0
  1  2  1  0  0  0
  1 27  1  0  0  0
  1 28  1  0  0  0
  1 29  1  0  0  0
  2  3  1  0  0  0
  2 30  1  0  0  0
  2 31  1  0  0  0
  3  4  1  0  0  0
  3 25  1  0  0  0
  3 26  1  0  0  0
  4  5  1  0  0  0
  4 32  1  0  0  0
  4 33  1  0  0  0
  5  6  1  0  0  0
  5 34  1  0  0  0
  5 35  1  0  0  0
  6  7  2  0  0  0
  6 21  1  0  0  0
  7  8  1  0  0  0
  7 25  1  0  0  0
  8  9  1  0  0  0
  9 10  1  0  0  0
  9 21  2  0  0  0
 10 11  1  0  0  0
 10 36  1  0  0  0
 11 12  2  0  0  0
 11 13  1  0  0  0
 13 14  1  0  0  0
 13 37  1  0  0  0
 14 15  2  0  0  0
 14 20  1  0  0  0
 15 16  1  0  0  0
 15 38  1  0  0  0
 16 17  2  0  0  0
 16 39  1  0  0  0
 17 18  1  0  0  0
 17 19  1  0  0  0
 19 20  2  0  0  0
 19 40  1  0  0  0
 20 41  1  0  0  0
 21 22  1  0  0  0
 22 23  1  0  0  0
 22 24  2  0  0  0
 23 42  1  0  0  0
 23 43  1  0  0  0
 25 44  1  0  0  0
 25 45  1  0  0  0
M  CHG  1   3   1
M  END
$$$$
E6_berbamine
                    3D
 Schrodinger Suite 2021-2.
101108  0  0  1  0            999 V2000
    6.5357    5.3430   -3.9861 C   0  0  0  0  0  0
    5.7967    4.6439   -3.0536 O   0  0  0  0  0  0
    4.5277    5.1364   -2.8271 C   0  0  0  0  0  0
    4.0851    6.2661   -3.5342 C   0  0  0  0  0  0
    2.7878    6.7701   -3.3293 C   0  0  0  0  0  0
    1.9516    6.1113   -2.3834 C   0  0  0  0  0  0
    2.3829    4.9924   -1.6310 C   0  0  0  0  0  0
    3.6834    4.5020   -1.8951 C   0  0  0  0  0  0
    4.1329    3.3783   -1.2454 O   0  0  0  0  0  0
    4.0201    2.1477   -1.8617 C   0  0  0  0  0  0
    3.4332    1.9745   -3.1432 C   0  0  0  0  0  0
    2.9510    3.0578   -3.8492 O   0  0  0  0  0  0
    3.2950    3.0829   -5.1855 C   0  0  0  0  0  0
    3.3093    0.7139   -3.7512 C   0  0  0  0  0  0
    2.7347    0.6032   -5.0010 O   0  0  0  0  0  0
    2.6655   -0.6818   -5.4993 C   0  0  0  0  0  0
    3.7849   -0.4319   -3.0994 C   0  0  0  0  0  0
    4.3736   -0.3279   -1.8277 C   0  0  0  0  0  0
    4.4665    0.9596   -1.2210 C   0  0  0  0  0  0
    5.0521    1.1391    0.2011 C   0  0  1  0  0  0
    4.0449    1.6430    1.2802 C   0  0  0  0  0  0
    2.7502    0.8551    1.4138 C   0  0  0  0  0  0
    2.5130    0.0191    2.5270 C   0  0  0  0  0  0
    1.2984   -0.6887    2.6282 C   0  0  0  0  0  0
    0.3088   -0.5521    1.6339 C   0  0  0  0  0  0
   -0.8822   -1.2402    1.7457 O   0  0  0  0  0  0
   -1.8974   -0.3401    1.7845 C   0  0  0  0  0  0
   -1.7236    0.8719    1.7258 O   0  0  0  0  0  0
   -3.2027   -1.0689    1.9061 C   0  0  0  0  0  0
   -3.2208   -2.4576    1.9603 C   0  0  0  0  0  0
   -4.4304   -3.1330    2.0729 C   0  0  0  0  0  0
   -5.6217   -2.4196    2.1315 C   0  0  0  0  0  0
   -6.8923   -3.1291    2.2499 N   0  3  0  0  0  0
   -7.9061   -2.4431    2.2966 O   0  0  0  0  0  0
   -6.8404   -4.3522    2.2926 O   0  5  0  0  0  0
   -5.6036   -1.0310    2.0774 C   0  0  0  0  0  0
   -4.3941   -0.3556    1.9647 C   0  0  0  0  0  0
    0.5198    0.3035    0.5363 C   0  0  0  0  0  0
    1.7458    0.9973    0.4366 C   0  0  0  0  0  0
   -0.4667    0.4455   -0.4125 O   0  0  0  0  0  0
   -0.5951    1.6759   -1.0042 C   0  0  0  0  0  0
   -1.1288    2.7593   -0.2793 C   0  0  0  0  0  0
   -1.1492    4.0469   -0.8463 C   0  0  0  0  0  0
   -0.6315    4.2595   -2.1429 C   0  0  0  0  0  0
   -0.1445    3.1633   -2.8881 C   0  0  0  0  0  0
   -0.1295    1.8751   -2.3190 C   0  0  0  0  0  0
   -0.6007    5.6634   -2.7186 C   0  0  0  0  0  0
    0.5038    6.5832   -2.1205 C   0  0  2  0  0  0
    0.2929    7.9844   -2.5397 N   0  3  2  0  0  0
   -1.1203    8.3267   -2.4078 C   0  0  0  0  0  0
    0.7494    8.2356   -3.9152 C   0  0  0  0  0  0
    2.2625    8.0504   -3.9715 C   0  0  0  0  0  0
    5.7861   -0.0513    0.6878 N   0  3  1  0  0  0
    6.0253    0.0801    2.1220 C   0  0  0  0  0  0
    5.1059   -1.3257    0.4123 C   0  0  0  0  0  0
    4.9982   -1.5053   -1.0932 C   0  0  0  0  0  0
    0.8290    8.5760   -1.9202 H   0  0  0  0  0  0
    6.6756   -0.0758    0.2099 H   0  0  0  0  0  0
    7.5164    4.8796   -4.0940 H   0  0  0  0  0  0
    6.0188    5.3269   -4.9457 H   0  0  0  0  0  0
    6.6557    6.3746   -3.6554 H   0  0  0  0  0  0
    4.7566    6.7503   -4.2310 H   0  0  0  0  0  0
    1.7503    4.4934   -0.9101 H   0  0  0  0  0  0
    2.8700    3.9709   -5.6534 H   0  0  0  0  0  0
    4.3806    3.1063   -5.2808 H   0  0  0  0  0  0
    2.9063    2.1914   -5.6775 H   0  0  0  0  0  0
    2.1992   -0.6648   -6.4845 H   0  0  0  0  0  0
    3.6710   -1.0947   -5.5803 H   0  0  0  0  0  0
    2.0716   -1.3008   -4.8269 H   0  0  0  0  0  0
    3.7061   -1.3927   -3.5911 H   0  0  0  0  0  0
    5.8181    1.9125    0.1181 H   0  0  0  0  0  0
    3.7571    2.6722    1.0654 H   0  0  0  0  0  0
    4.5321    1.7009    2.2547 H   0  0  0  0  0  0
    3.2439   -0.0847    3.3166 H   0  0  0  0  0  0
    1.1126   -1.3307    3.4784 H   0  0  0  0  0  0
   -2.2933   -3.0130    1.9147 H   0  0  0  0  0  0
   -4.4444   -4.2141    2.1151 H   0  0  0  0  0  0
   -6.5311   -0.4756    2.1229 H   0  0  0  0  0  0
   -4.3800    0.7255    1.9225 H   0  0  0  0  0  0
    1.9053    1.6586   -0.3996 H   0  0  0  0  0  0
   -1.5000    2.5995    0.7234 H   0  0  0  0  0  0
   -1.5554    4.8626   -0.2658 H   0  0  0  0  0  0
    0.2389    3.2978   -3.8897 H   0  0  0  0  0  0
    0.2695    1.0392   -2.8763 H   0  0  0  0  0  0
   -1.5878    6.0970   -2.5499 H   0  0  0  0  0  0
   -0.4906    5.5817   -3.8007 H   0  0  0  0  0  0
    0.3665    6.5866   -1.0373 H   0  0  0  0  0  0
   -1.7107    7.6951   -3.0716 H   0  0  0  0  0  0
   -1.4380    8.1677   -1.3773 H   0  0  0  0  0  0
   -1.2673    9.3729   -2.6760 H   0  0  0  0  0  0
    0.4858    9.2501   -4.2186 H   0  0  0  0  0  0
    0.2547    7.5634   -4.6174 H   0  0  0  0  0  0
    2.5920    8.0785   -5.0121 H   0  0  0  0  0  0
    2.7594    8.8908   -3.4830 H   0  0  0  0  0  0
    5.0712    0.1075    2.6485 H   0  0  0  0  0  0
    6.6093   -0.7709    2.4725 H   0  0  0  0  0  0
    6.5739    1.0018    2.3159 H   0  0  0  0  0  0
    4.1168   -1.3578    0.8653 H   0  0  0  0  0  0
    5.6724   -2.1503    0.8475 H   0  0  0  0  0  0
    5.9828   -1.6892   -1.5269 H   0  0  0  0  0  0
    4.4081   -2.3989   -1.3067 H   0  0  0  0  0  0
  1  2  1  0  0  0
  1 59  1  0  0  0
  1 60  1  0  0  0
  1 61  1  0  0  0
  2  3  1  0  0  0
  3  4  2  0  0  0
  3  8  1  0  0  0
  4  5  1  0  0  0
  4 62  1  0  0  0
  5  6  2  0  0  0
  5 52  1  0  0  0
  6  7  1  0  0  0
  6 48  1  0  0  0
  7  8  2  0  0  0
  7 63  1  0  0  0
  8  9  1  0  0  0
  9 10  1  0  0  0
 10 11  2  0  0  0
 10 19  1  0  0  0
 11 12  1  0  0  0
 11 14  1  0  0  0
 12 13  1  0  0  0
 13 64  1  0  0  0
 13 65  1  0  0  0
 13 66  1  0  0  0
 14 15  1  0  0  0
 14 17  2  0  0  0
 15 16  1  0  0  0
 16 67  1  0  0  0
 16 68  1  0  0  0
 16 69  1  0  0  0
 17 18  1  0  0  0
 17 70  1  0  0  0
 18 19  2  0  0  0
 18 56  1  0  0  0
 19 20  1  0  0  0
 20 21  1  0  0  0
 20 53  1  0  0  0
 20 71  1  0  0  0
 21 22  1  0  0  0
 21 72  1  0  0  0
 21 73  1  0  0  0
 22 23  2  0  0  0
 22 39  1  0  0  0
 23 24  1  0  0  0
 23 74  1  0  0  0
 24 25  2  0  0  0
 24 75  1  0  0  0
 25 26  1  0  0  0
 25 38  1  0  0  0
 26 27  1  0  0  0
 27 28  2  0  0  0
 27 29  1  0  0  0
 29 30  2  0  0  0
 29 37  1  0  0  0
 30 31  1  0  0  0
 30 76  1  0  0  0
 31 32  2  0  0  0
 31 77  1  0  0  0
 32 33  1  0  0  0
 32 36  1  0  0  0
 33 34  2  0  0  0
 33 35  1  0  0  0
 36 37  2  0  0  0
 36 78  1  0  0  0
 37 79  1  0  0  0
 38 39  2  0  0  0
 38 40  1  0  0  0
 39 80  1  0  0  0
 40 41  1  0  0  0
 41 42  2  0  0  0
 41 46  1  0  0  0
 42 43  1  0  0  0
 42 81  1  0  0  0
 43 44  2  0  0  0
 43 82  1  0  0  0
 44 45  1  0  0  0
 44 47  1  0  0  0
 45 46  2  0  0  0
 45 83  1  0  0  0
 46 84  1  0  0  0
 47 48  1  0  0  0
 47 85  1  0  0  0
 47 86  1  0  0  0
 48 49  1  0  0  0
 48 87  1  0  0  0
 49 50  1  0  0  0
 49 51  1  0  0  0
 49 57  1  0  0  0
 50 88  1  0  0  0
 50 89  1  0  0  0
 50 90  1  0  0  0
 51 52  1  0  0  0
 51 91  1  0  0  0
 51 92  1  0  0  0
 52 93  1  0  0  0
 52 94  1  0  0  0
 53 54  1  0  0  0
 53 55  1  0  0  0
 53 58  1  0  0  0
 54 95  1  0  0  0
 54 96  1  0  0  0
 54 97  1  0  0  0
 55 56  1  0  0  0
 55 98  1  0  0  0
 55 99  1  0  0  0
 56100  1  0  0  0
 56101  1  0  0  0
M  CHG  4  33   1  35  -1  49   1  53   1
M  END
$$$$
Phenoxybenzamine
                    3D
 Schrodinger Suite 2021-2.
 44 45  0  0  1  0            999 V2000
   -0.5892    2.7808    0.5576 C   0  0  0  0  0  0
    0.0926    1.6093    1.2002 C   0  0  1  0  0  0
   -0.8027    0.4080    1.1269 C   0  0  0  0  0  0
   -1.9836    0.6734    1.7898 O   0  0  0  0  0  0
   -2.8960   -0.3620    1.7929 C   0  0  0  0  0  0
   -4.1209   -0.2069    2.4311 C   0  0  0  0  0  0
   -5.0399   -1.2495    2.4342 C   0  0  0  0  0  0
   -4.7340   -2.4473    1.7990 C   0  0  0  0  0  0
   -3.5090   -2.6024    1.1608 C   0  0  0  0  0  0
   -2.5902   -1.5597    1.1577 C   0  0  0  0  0  0
    1.3420    1.3286    0.4988 N   0  3  2  0  0  0
    2.3015    2.3955    0.7683 C   0  0  0  0  0  0
    2.5626    2.4724    2.2434 C   0  0  0  0  0  0
    3.7339    3.7769    2.5569 Cl  0  0  0  0  0  0
    1.0878    1.2538   -0.9369 C   0  0  0  0  0  0
    2.3714    0.9654   -1.6575 C   0  0  0  0  0  0
    2.5633    1.4365   -2.9509 C   0  0  0  0  0  0
    3.7527    1.1693   -3.6186 C   0  0  0  0  0  0
    4.7501    0.4310   -2.9927 C   0  0  0  0  0  0
    4.5583   -0.0401   -1.6994 C   0  0  0  0  0  0
    3.3689    0.2271   -1.0317 C   0  0  0  0  0  0
    1.7181    0.4482    0.8205 H   0  0  0  0  0  0
   -1.5220    2.9903    1.0812 H   0  0  0  0  0  0
    0.0614    3.6538    0.6109 H   0  0  0  0  0  0
   -0.8024    2.5496   -0.4860 H   0  0  0  0  0  0
    0.3057    1.8405    2.2438 H   0  0  0  0  0  0
   -0.3073   -0.4433    1.5938 H   0  0  0  0  0  0
   -1.0159    0.1769    0.0833 H   0  0  0  0  0  0
   -4.3591    0.7256    2.9256 H   0  0  0  0  0  0
   -5.9934   -1.1288    2.9311 H   0  0  0  0  0  0
   -5.4494   -3.2591    1.8013 H   0  0  0  0  0  0
   -3.2709   -3.5349    0.6662 H   0  0  0  0  0  0
   -1.6365   -1.6805    0.6608 H   0  0  0  0  0  0
    1.8956    3.3455    0.4211 H   0  0  0  0  0  0
    3.2343    2.1859    0.2447 H   0  0  0  0  0  0
    2.9792    1.5293    2.5973 H   0  0  0  0  0  0
    1.6364    2.6926    2.7742 H   0  0  0  0  0  0
    0.6819    2.2039   -1.2841 H   0  0  0  0  0  0
    0.3714    0.4573   -1.1381 H   0  0  0  0  0  0
    1.7867    2.0112   -3.4381 H   0  0  0  0  0  0
    3.9020    1.5360   -4.6255 H   0  0  0  0  0  0
    5.6761    0.2229   -3.5125 H   0  0  0  0  0  0
    5.3348   -0.6149   -1.2122 H   0  0  0  0  0  0
    3.2195   -0.1397   -0.0248 H   0  0  0  0  0  0
  1  2  1  0  0  0
  1 23  1  0  0  0
  1 24  1  0  0  0
  1 25  1  0  0  0
  2  3  1  0  0  0
  2 11  1  0  0  0
  2 26  1  0  0  0
  3  4  1  0  0  0
  3 27  1  0  0  0
  3 28  1  0  0  0
  4  5  1  0  0  0
  5  6  2  0  0  0
  5 10  1  0  0  0
  6  7  1  0  0  0
  6 29  1  0  0  0
  7  8  2  0  0  0
  7 30  1  0  0  0
  8  9  1  0  0  0
  8 31  1  0  0  0
  9 10  2  0  0  0
  9 32  1  0  0  0
 10 33  1  0  0  0
 11 12  1  0  0  0
 11 15  1  0  0  0
 11 22  1  0  0  0
 12 13  1  0  0  0
 12 34  1  0  0  0
 12 35  1  0  0  0
 13 14  1  0  0  0
 13 36  1  0  0  0
 13 37  1  0  0  0
 15 16  1  0  0  0
 15 38  1  0  0  0
 15 39  1  0  0  0
 16 17  2  0  0  0
 16 21  1  0  0  0
 17 18  1  0  0  0
 17 40  1  0  0  0
 18 19  2  0  0  0
 18 41  1  0  0  0
 19 20  1  0  0  0
 19 42  1  0  0  0
 20 21  2  0  0  0
 20 43  1  0  0  0
 21 44  1  0  0  0
M  CHG  1  11   1
M  END
$$$$
Carvedilol_derivate_13
                    3D
 Schrodinger Suite 2021-2.
 56 59  0  0  1  0            999 V2000
    1.5267   -1.2663   -4.1452 C   0  0  0  0  0  0
    1.5447    0.0370   -3.6919 O   0  0  0  0  0  0
    2.7271    0.4325   -3.1003 C   0  0  0  0  0  0
    3.7860   -0.4619   -2.9979 C   0  0  0  0  0  0
    4.9768   -0.0635   -2.4021 C   0  0  0  0  0  0
    5.1086    1.2290   -1.9086 C   0  0  0  0  0  0
    4.0497    2.1233   -2.0109 C   0  0  0  0  0  0
    2.8589    1.7250   -2.6068 C   0  0  0  0  0  0
    1.8074    2.6129   -2.7084 O   0  0  0  0  0  0
    2.0502    3.8667   -2.1853 C   0  0  0  0  0  0
    2.1288    3.7780   -0.6900 C   0  0  0  0  0  0
    0.8652    3.2683   -0.1656 N   0  3  0  0  0  0
    0.9417    3.1820    1.2898 C   0  0  0  0  0  0
   -0.3565    2.6583    1.8286 C   0  0  0  0  0  0
   -0.6204    1.2954    1.2600 C   0  0  0  0  0  0
   -1.8148    0.8136    1.7557 O   0  0  0  0  0  0
   -2.1704   -0.4408    1.3035 C   0  0  0  0  0  0
   -1.3465   -1.1258    0.4126 C   0  0  0  0  0  0
   -1.6925   -2.3906   -0.0511 C   0  0  0  0  0  0
   -2.8702   -3.0199    0.3544 C   0  0  0  0  0  0
   -3.6964   -2.3335    1.2476 C   0  0  0  0  0  0
   -4.9013   -2.6897    1.8177 N   0  0  0  0  0  0
   -5.3510   -1.6822    2.6460 C   0  0  0  0  0  0
   -6.5057   -1.5888    3.4269 C   0  0  0  0  0  0
   -6.6896   -0.4235    4.1723 C   0  0  0  0  0  0
   -5.7618    0.6123    4.1443 C   0  0  0  0  0  0
   -4.6101    0.5196    3.3655 C   0  0  0  0  0  0
   -4.3927   -0.6385    2.6029 C   0  0  0  0  0  0
   -3.3629   -1.0439    1.7326 C   0  0  0  0  0  0
    0.5567   -1.4819   -4.5933 H   0  0  0  0  0  0
    1.6995   -1.9442   -3.3092 H   0  0  0  0  0  0
    2.3098   -1.4024   -4.8911 H   0  0  0  0  0  0
    3.6834   -1.4682   -3.3822 H   0  0  0  0  0  0
    5.8013   -0.7598   -2.3225 H   0  0  0  0  0  0
    6.0358    1.5391   -1.4448 H   0  0  0  0  0  0
    4.1523    3.1295   -1.6268 H   0  0  0  0  0  0
    2.9936    4.2472   -2.5768 H   0  0  0  0  0  0
    1.2414    4.5409   -2.4674 H   0  0  0  0  0  0
    2.9376    3.1038   -0.4081 H   0  0  0  0  0  0
    2.3206    4.7683   -0.2769 H   0  0  0  0  0  0
    0.1158    3.8930   -0.4269 H   0  0  0  0  0  0
    1.7505    2.5078    1.5717 H   0  0  0  0  0  0
    1.1335    4.1722    1.7029 H   0  0  0  0  0  0
   -0.2995    2.5938    2.9151 H   0  0  0  0  0  0
   -1.1653    3.3324    1.5466 H   0  0  0  0  0  0
   -0.6776    1.3599    0.1734 H   0  0  0  0  0  0
    0.1883    0.6213    1.5420 H   0  0  0  0  0  0
   -0.4243   -0.6699    0.0752 H   0  0  0  0  0  0
   -1.0307   -2.8963   -0.7428 H   0  0  0  0  0  0
   -3.1269   -4.0037   -0.0141 H   0  0  0  0  0  0
   -5.3851   -3.5634    1.6523 H   0  0  0  0  0  0
   -7.2353   -2.3864    3.4581 H   0  0  0  0  0  0
   -7.5745   -0.3204    4.7877 H   0  0  0  0  0  0
   -5.9395    1.5011    4.7364 H   0  0  0  0  0  0
   -3.8950    1.3310    3.3510 H   0  0  0  0  0  0
    0.6875    2.3507   -0.5484 H   0  0  0  0  0  0
  1  2  1  0  0  0
  1 30  1  0  0  0
  1 31  1  0  0  0
  1 32  1  0  0  0
  2  3  1  0  0  0
  3  4  2  0  0  0
  3  8  1  0  0  0
  4  5  1  0  0  0
  4 33  1  0  0  0
  5  6  2  0  0  0
  5 34  1  0  0  0
  6  7  1  0  0  0
  6 35  1  0  0  0
  7  8  2  0  0  0
  7 36  1  0  0  0
  8  9  1  0  0  0
  9 10  1  0  0  0
 10 11  1  0  0  0
 10 37  1  0  0  0
 10 38  1  0  0  0
 11 12  1  0  0  0
 11 39  1  0  0  0
 11 40  1  0  0  0
 12 13  1  0  0  0
 12 41  1  0  0  0
 12 56  1  0  0  0
 13 14  1  0  0  0
 13 42  1  0  0  0
 13 43  1  0  0  0
 14 15  1  0  0  0
 14 44  1  0  0  0
 14 45  1  0  0  0
 15 16  1  0  0  0
 15 46  1  0  0  0
 15 47  1  0  0  0
 16 17  1  0  0  0
 17 18  2  0  0  0
 17 29  1  0  0  0
 18 19  1  0  0  0
 18 48  1  0  0  0
 19 20  2  0  0  0
 19 49  1  0  0  0
 20 21  1  0  0  0
 20 50  1  0  0  0
 21 22  1  0  0  0
 21 29  2  0  0  0
 22 23  1  0  0  0
 22 51  1  0  0  0
 23 24  2  0  0  0
 23 28  1  0  0  0
 24 25  1  0  0  0
 24 52  1  0  0  0
 25 26  2  0  0  0
 25 53  1  0  0  0
 26 27  1  0  0  0
 26 54  1  0  0  0
 27 28  2  0  0  0
 27 55  1  0  0  0
 28 29  1  0  0  0
M  CHG  1  12   1
M  END
$$$$
ORC_13661
                    3D
 Schrodinger Suite 2021-2.
 46 49  0  0  1  0            999 V2000
   -6.3703   -1.1931   -0.2438 C   0  0  0  0  0  0
   -6.7050   -0.9140    1.1496 N   0  3  1  0  0  0
   -6.8628   -2.1684    1.9222 C   0  0  2  0  0  0
   -6.7140   -1.7013    3.3853 C   0  0  0  0  0  0
   -5.9228   -0.3797    3.3031 C   0  0  0  0  0  0
   -5.5739   -0.2345    1.8150 C   0  0  1  0  0  0
   -4.3369   -1.0338    1.4889 C   0  0  0  0  0  0
   -4.4324   -2.3978    1.3765 C   0  0  0  0  0  0
   -2.8985   -3.1385    1.0260 S   0  0  0  0  0  0
   -2.1248   -1.5746    1.0181 C   0  0  0  0  0  0
   -0.6901   -1.4851    0.7626 N   0  0  0  0  0  0
   -0.1241   -0.8123   -0.2340 C   0  0  0  0  0  0
   -0.7586   -0.1774   -1.0687 O   0  0  0  0  0  0
    1.2019   -0.9002   -0.2305 N   0  0  0  0  0  0
    2.0959   -0.2697   -1.1974 C   0  0  0  0  0  0
    3.4736   -0.4406   -1.0819 C   0  0  0  0  0  0
    4.3352    0.1560   -1.9981 C   0  0  0  0  0  0
    3.8083    0.9247   -3.0303 C   0  0  0  0  0  0
    4.8652    1.6699   -4.1731 Cl  0  0  0  0  0  0
    2.4313    1.0949   -3.1450 C   0  0  0  0  0  0
    1.5677    0.4994   -2.2300 C   0  0  0  0  0  0
   -3.0088   -0.5581    1.2783 C   0  0  0  0  0  0
   -2.6375    0.8935    1.3512 C   0  0  0  0  0  0
   -3.2960    1.6197    0.4474 N   0  0  0  0  0  0
   -1.8295    1.3799    2.1368 O   0  0  0  0  0  0
   -5.7258   -3.1439    1.5055 C   0  0  0  0  0  0
   -5.4696   -1.8055   -0.2855 H   0  0  0  0  0  0
   -6.1965   -0.2549   -0.7707 H   0  0  0  0  0  0
   -7.1951   -1.7273   -0.7156 H   0  0  0  0  0  0
   -7.8362   -2.6333    1.7555 H   0  0  0  0  0  0
   -7.6900   -1.5270    3.8418 H   0  0  0  0  0  0
   -6.2029   -2.4431    4.0023 H   0  0  0  0  0  0
   -6.5583    0.4467    3.6261 H   0  0  0  0  0  0
   -5.0373   -0.3723    3.9424 H   0  0  0  0  0  0
   -5.4756    0.8071    1.5041 H   0  0  0  0  0  0
   -0.1981   -2.0160    1.4640 H   0  0  0  0  0  0
    1.7526   -1.4128    0.4400 H   0  0  0  0  0  0
    3.8770   -1.0396   -0.2768 H   0  0  0  0  0  0
    5.4042    0.0243   -1.9097 H   0  0  0  0  0  0
    2.0319    1.6942   -3.9507 H   0  0  0  0  0  0
    0.4984    0.6335   -2.3217 H   0  0  0  0  0  0
   -3.9676    1.2614   -0.2165 H   0  0  0  0  0  0
   -3.2038    2.6168    0.3161 H   0  0  0  0  0  0
   -5.6258   -3.9590    2.2247 H   0  0  0  0  0  0
   -5.9632   -3.6139    0.5496 H   0  0  0  0  0  0
   -7.5369   -0.3472    1.2172 H   0  0  0  0  0  0
  1  2  1  0  0  0
  1 27  1  0  0  0
  1 28  1  0  0  0
  1 29  1  0  0  0
  2  3  1  0  0  0
  2  6  1  0  0  0
  2 46  1  0  0  0
  3  4  1  0  0  0
  3 26  1  0  0  0
  3 30  1  0  0  0
  4  5  1  0  0  0
  4 31  1  0  0  0
  4 32  1  0  0  0
  5  6  1  0  0  0
  5 33  1  0  0  0
  5 34  1  0  0  0
  6  7  1  0  0  0
  6 35  1  0  0  0
  7  8  2  0  0  0
  7 22  1  0  0  0
  8  9  1  0  0  0
  8 26  1  0  0  0
  9 10  1  0  0  0
 10 11  1  0  0  0
 10 22  2  0  0  0
 11 12  1  0  0  0
 11 36  1  0  0  0
 12 13  2  0  0  0
 12 14  1  0  0  0
 14 15  1  0  0  0
 14 37  1  0  0  0
 15 16  2  0  0  0
 15 21  1  0  0  0
 16 17  1  0  0  0
 16 38  1  0  0  0
 17 18  2  0  0  0
 17 39  1  0  0  0
 18 19  1  0  0  0
 18 20  1  0  0  0
 20 21  2  0  0  0
 20 40  1  0  0  0
 21 41  1  0  0  0
 22 23  1  0  0  0
 23 24  1  0  0  0
 23 25  2  0  0  0
 24 42  1  0  0  0
 24 43  1  0  0  0
 26 44  1  0  0  0
 26 45  1  0  0  0
M  CHG  1   2   1
M  END
$$$$
