UoS-3607
                    3D
 Schrodinger Suite 2021-2.
 50 53  0  0  1  0            999 V2000
    1.0759   -0.4230   -1.5610 O   0  0  0  0  0  0
    1.3760   -0.4147   -2.7512 C   0  0  0  0  0  0
    0.4003   -0.3998   -3.8904 C   0  0  0  0  0  0
   -0.9618   -0.3969   -3.3646 N   0  3  2  0  0  0
   -1.2003    0.8865   -2.5381 C   0  0  0  0  0  0
   -2.6397    0.8747   -1.9890 C   0  0  0  0  0  0
   -2.9418   -0.4045   -1.1854 C   0  0  2  0  0  0
   -2.1171   -0.4194    0.0675 C   0  0  0  0  0  0
   -1.6798    0.6233    0.7320 N   0  0  0  0  0  0
   -0.9832    0.0923    1.7902 C   0  0  0  0  0  0
   -0.3021    0.7431    2.8251 C   0  0  0  0  0  0
    0.3372   -0.0307    3.7963 C   0  0  0  0  0  0
    0.3020   -1.4236    3.7426 C   0  0  0  0  0  0
   -0.3690   -2.1046    2.7231 C   0  0  0  0  0  0
   -1.0058   -1.3244    1.7557 C   0  0  0  0  0  0
   -1.7451   -1.6154    0.6325 N   0  0  0  0  0  0
   -2.6535   -1.6731   -2.0104 C   0  0  0  0  0  0
   -1.2142   -1.6913   -2.5598 C   0  0  0  0  0  0
    2.6386   -0.4179   -3.1798 N   0  0  0  0  0  0
    3.8234   -0.4315   -2.3270 C   0  0  0  0  0  0
    3.6842   -0.4423   -0.9442 C   0  0  0  0  0  0
    4.8121   -0.4552   -0.1322 C   0  0  0  0  0  0
    6.0793   -0.4573   -0.7031 C   0  0  0  0  0  0
    6.2186   -0.4464   -2.0858 C   0  0  0  0  0  0
    7.5497   -0.4486   -2.6855 N   0  3  0  0  0  0
    7.6047   -0.4386   -3.9092 O   0  0  0  0  0  0
    8.5026   -0.4602   -1.9158 O   0  5  0  0  0  0
    5.0906   -0.4335   -2.8978 C   0  0  0  0  0  0
   -1.5534   -0.3868   -4.1839 H   0  0  0  0  0  0
    0.5493   -1.2855   -4.5081 H   0  0  0  0  0  0
    0.5589    0.4944   -4.4932 H   0  0  0  0  0  0
   -1.0142    1.7355   -3.2002 H   0  0  0  0  0  0
   -0.4501    0.8975   -1.7439 H   0  0  0  0  0  0
   -3.3499    0.9783   -2.8117 H   0  0  0  0  0  0
   -2.7941    1.7531   -1.3591 H   0  0  0  0  0  0
   -3.9820   -0.4016   -0.8522 H   0  0  0  0  0  0
   -0.2735    1.8221    2.8689 H   0  0  0  0  0  0
    0.8689    0.4558    4.6042 H   0  0  0  0  0  0
    0.8091   -1.9908    4.5130 H   0  0  0  0  0  0
   -0.3900   -3.1854    2.6909 H   0  0  0  0  0  0
   -1.9986   -2.5199    0.2471 H   0  0  0  0  0  0
   -3.3647   -1.7552   -2.8347 H   0  0  0  0  0  0
   -2.8175   -2.5602   -1.3952 H   0  0  0  0  0  0
   -1.0372   -2.5310   -3.2359 H   0  0  0  0  0  0
   -0.4642   -1.7236   -1.7660 H   0  0  0  0  0  0
    2.9296   -0.4114   -4.1470 H   0  0  0  0  0  0
    2.6977   -0.4407   -0.4997 H   0  0  0  0  0  0
    4.7037   -0.4636    0.9443 H   0  0  0  0  0  0
    6.9574   -0.4673   -0.0710 H   0  0  0  0  0  0
    5.1990   -0.4251   -3.9744 H   0  0  0  0  0  0
  1  2  2  0  0  0
  2  3  1  0  0  0
  2 19  1  0  0  0
  3  4  1  0  0  0
  3 30  1  0  0  0
  3 31  1  0  0  0
  4  5  1  0  0  0
  4 18  1  0  0  0
  4 29  1  0  0  0
  5  6  1  0  0  0
  5 32  1  0  0  0
  5 33  1  0  0  0
  6  7  1  0  0  0
  6 34  1  0  0  0
  6 35  1  0  0  0
  7  8  1  0  0  0
  7 17  1  0  0  0
  7 36  1  0  0  0
  8  9  2  0  0  0
  8 16  1  0  0  0
  9 10  1  0  0  0
 10 11  2  0  0  0
 10 15  1  0  0  0
 11 12  1  0  0  0
 11 37  1  0  0  0
 12 13  2  0  0  0
 12 38  1  0  0  0
 13 14  1  0  0  0
 13 39  1  0  0  0
 14 15  2  0  0  0
 14 40  1  0  0  0
 15 16  1  0  0  0
 16 41  1  0  0  0
 17 18  1  0  0  0
 17 42  1  0  0  0
 17 43  1  0  0  0
 18 44  1  0  0  0
 18 45  1  0  0  0
 19 20  1  0  0  0
 19 46  1  0  0  0
 20 21  2  0  0  0
 20 28  1  0  0  0
 21 22  1  0  0  0
 21 47  1  0  0  0
 22 23  2  0  0  0
 22 48  1  0  0  0
 23 24  1  0  0  0
 23 49  1  0  0  0
 24 25  1  0  0  0
 24 28  2  0  0  0
 25 26  2  0  0  0
 25 27  1  0  0  0
 28 50  1  0  0  0
M  CHG  3   4   1  25   1  27  -1
M  END
$$$$
Proto_1
                    3D
 Schrodinger Suite 2021-2.
 45 47  0  0  1  0            999 V2000
   -6.1564    0.4055   -1.4563 C   0  0  0  0  0  0
   -5.1352   -0.5776   -0.9657 C   0  0  0  0  0  0
   -5.3299   -0.8099    0.4624 N   0  3  2  0  0  0
   -5.2728    0.5346    1.2221 C   0  0  0  0  0  0
   -3.9268    1.2549    0.9465 C   0  0  0  0  0  0
   -2.7593    0.2773    0.9572 C   0  0  0  0  0  0
   -2.9360   -1.1108    0.9428 C   0  0  0  0  0  0
   -1.4196   -1.9600    0.9270 S   0  0  0  0  0  0
   -0.5525   -0.4634    0.9487 C   0  0  0  0  0  0
    0.9075   -0.4656    0.9470 N   0  0  0  0  0  0
    1.6779   -0.4525   -0.1358 C   0  0  0  0  0  0
    1.2381   -0.4369   -1.2797 O   0  0  0  0  0  0
    2.9753   -0.4584    0.1521 N   0  0  0  0  0  0
    4.0605   -0.4472   -0.8245 C   0  0  0  0  0  0
    5.3360   -0.0410   -0.4390 C   0  0  0  0  0  0
    6.3781   -0.0264   -1.3619 C   0  0  0  0  0  0
    6.1345   -0.4212   -2.6729 C   0  0  0  0  0  0
    7.4172   -0.4080   -3.8272 Cl  0  0  0  0  0  0
    4.8594   -0.8271   -3.0572 C   0  0  0  0  0  0
    3.8158   -0.8424   -2.1362 C   0  0  0  0  0  0
   -1.4041    0.6320    0.9641 C   0  0  0  0  0  0
   -0.9228    2.0526    0.9783 C   0  0  0  0  0  0
   -0.1736    2.3115    2.0505 N   0  0  0  0  0  0
   -1.1731    2.8944    0.1207 O   0  0  0  0  0  0
   -4.2797   -1.8217    0.9698 C   0  0  0  0  0  0
   -6.2539   -1.2139    0.5382 H   0  0  0  0  0  0
   -6.0110    0.5789   -2.5225 H   0  0  0  0  0  0
   -7.1562    0.0060   -1.2862 H   0  0  0  0  0  0
   -6.0441    1.3458   -0.9166 H   0  0  0  0  0  0
   -4.1354   -0.1782   -1.1358 H   0  0  0  0  0  0
   -5.2475   -1.5179   -1.5054 H   0  0  0  0  0  0
   -5.4164    0.3012    2.2804 H   0  0  0  0  0  0
   -6.1301    1.1210    0.8826 H   0  0  0  0  0  0
   -3.7775    2.0446    1.6845 H   0  0  0  0  0  0
   -3.9703    1.7649   -0.0172 H   0  0  0  0  0  0
    1.2367   -0.4786    1.8996 H   0  0  0  0  0  0
    3.3689   -0.4712    1.0799 H   0  0  0  0  0  0
    5.5189    0.2650    0.5822 H   0  0  0  0  0  0
    7.3681    0.2885   -1.0642 H   0  0  0  0  0  0
    4.6804   -1.1320   -4.0784 H   0  0  0  0  0  0
    2.8263   -1.1582   -2.4378 H   0  0  0  0  0  0
    0.2551    3.2003    2.2657 H   0  0  0  0  0  0
    0.0567    1.6506    2.7786 H   0  0  0  0  0  0
   -4.3329   -2.6840    0.3013 H   0  0  0  0  0  0
   -4.5843   -2.1372    1.9702 H   0  0  0  0  0  0
  1  2  1  0  0  0
  1 27  1  0  0  0
  1 28  1  0  0  0
  1 29  1  0  0  0
  2  3  1  0  0  0
  2 30  1  0  0  0
  2 31  1  0  0  0
  3  4  1  0  0  0
  3 25  1  0  0  0
  3 26  1  0  0  0
  4  5  1  0  0  0
  4 32  1  0  0  0
  4 33  1  0  0  0
  5  6  1  0  0  0
  5 34  1  0  0  0
  5 35  1  0  0  0
  6  7  2  0  0  0
  6 21  1  0  0  0
  7  8  1  0  0  0
  7 25  1  0  0  0
  8  9  1  0  0  0
  9 10  1  0  0  0
  9 21  2  0  0  0
 10 11  1  0  0  0
 10 36  1  0  0  0
 11 12  2  0  0  0
 11 13  1  0  0  0
 13 14  1  0  0  0
 13 37  1  0  0  0
 14 15  2  0  0  0
 14 20  1  0  0  0
 15 16  1  0  0  0
 15 38  1  0  0  0
 16 17  2  0  0  0
 16 39  1  0  0  0
 17 18  1  0  0  0
 17 19  1  0  0  0
 19 20  2  0  0  0
 19 40  1  0  0  0
 20 41  1  0  0  0
 21 22  1  0  0  0
 22 23  1  0  0  0
 22 24  2  0  0  0
 23 42  1  0  0  0
 23 43  1  0  0  0
 25 44  1  0  0  0
 25 45  1  0  0  0
M  CHG  1   3   1
M  END
$$$$
E6_berbamine
                    3D
 Schrodinger Suite 2021-2.
101108  0  0  1  0            999 V2000
   -6.4090    0.8764    5.0207 C   0  0  0  0  0  0
   -6.1257    1.3667    3.7624 O   0  0  0  0  0  0
   -5.4760    2.5841    3.7435 C   0  0  0  0  0  0
   -5.1819    3.2063    4.9721 C   0  0  0  0  0  0
   -4.5135    4.4429    4.9848 C   0  0  0  0  0  0
   -4.1456    5.0172    3.7496 C   0  0  0  0  0  0
   -4.4427    4.4375    2.4971 C   0  0  0  0  0  0
   -5.1266    3.1993    2.5147 C   0  0  0  0  0  0
   -5.3895    2.6150    1.2945 O   0  0  0  0  0  0
   -6.4294    1.7251    1.1482 C   0  0  0  0  0  0
   -7.7614    2.0497    1.4964 C   0  0  0  0  0  0
   -8.0445    3.3009    2.0049 O   0  0  0  0  0  0
   -8.3748    4.2527    1.0618 C   0  0  0  0  0  0
   -8.8150    1.1236    1.3501 C   0  0  0  0  0  0
  -10.0978    1.4812    1.7120 O   0  0  0  0  0  0
  -11.0508    0.5003    1.5275 C   0  0  0  0  0  0
   -8.5696   -0.1626    0.8341 C   0  0  0  0  0  0
   -7.2641   -0.5225    0.4541 C   0  0  0  0  0  0
   -6.2328    0.4314    0.6095 C   0  0  0  0  0  0
   -4.7987    0.0657    0.2171 C   0  0  1  0  0  0
   -4.0174   -0.4981    1.4192 C   0  0  0  0  0  0
   -2.5273   -0.5362    1.1502 C   0  0  0  0  0  0
   -1.8359   -1.7543    0.9840 C   0  0  0  0  0  0
   -0.4462   -1.7398    0.7513 C   0  0  0  0  0  0
    0.2549   -0.5178    0.6987 C   0  0  0  0  0  0
    1.6190   -0.5157    0.4902 O   0  0  0  0  0  0
    1.8502   -0.4582   -0.8460 C   0  0  0  0  0  0
    0.9544   -0.4168   -1.6818 O   0  0  0  0  0  0
    3.3294   -0.4550   -1.0943 C   0  0  0  0  0  0
    4.2139   -0.5066   -0.0234 C   0  0  0  0  0  0
    5.5846   -0.5036   -0.2534 C   0  0  0  0  0  0
    6.0708   -0.4489   -1.5543 C   0  0  0  0  0  0
    7.5107   -0.4458   -1.7959 N   0  3  0  0  0  0
    7.8749   -0.3963   -2.9645 O   0  0  0  0  0  0
    8.2366   -0.4929   -0.8103 O   0  5  0  0  0  0
    5.1863   -0.3973   -2.6251 C   0  0  0  0  0  0
    3.8157   -0.4003   -2.3952 C   0  0  0  0  0  0
   -0.4243    0.7023    0.8810 C   0  0  0  0  0  0
   -1.8217    0.6822    1.0891 C   0  0  0  0  0  0
    0.2885    1.8793    0.8471 O   0  0  0  0  0  0
   -0.1536    2.9328    1.6091 C   0  0  0  0  0  0
   -0.2973    2.8053    3.0066 C   0  0  0  0  0  0
   -0.8357    3.8627    3.7629 C   0  0  0  0  0  0
   -1.2189    5.0652    3.1301 C   0  0  0  0  0  0
   -1.0279    5.2111    1.7387 C   0  0  0  0  0  0
   -0.5000    4.1459    0.9826 C   0  0  0  0  0  0
   -1.8363    6.1873    3.9466 C   0  0  0  0  0  0
   -3.3685    6.3412    3.7488 C   0  0  2  0  0  0
   -3.9474    7.3230    4.7011 N   0  3  2  0  0  0
   -2.9446    8.3395    5.0054 C   0  0  0  0  0  0
   -4.5030    6.7707    5.9654 C   0  0  0  0  0  0
   -4.1521    5.2884    6.1932 C   0  0  0  0  0  0
   -4.6770   -0.8276   -0.9642 N   0  3  1  0  0  0
   -3.5755   -1.7445   -0.6857 C   0  0  0  0  0  0
   -5.8845   -1.5939   -1.3505 C   0  0  0  0  0  0
   -6.8193   -1.8371   -0.1599 C   0  0  0  0  0  0
   -4.7150    7.7783    4.2270 H   0  0  0  0  0  0
   -4.4041   -0.2629   -1.7562 H   0  0  0  0  0  0
   -6.9191   -0.0828    4.9306 H   0  0  0  0  0  0
   -5.4808    0.7434    5.5764 H   0  0  0  0  0  0
   -7.0512    1.5810    5.5492 H   0  0  0  0  0  0
   -5.4754    2.7296    5.8979 H   0  0  0  0  0  0
   -4.1475    4.8896    1.5605 H   0  0  0  0  0  0
   -8.5796    5.2009    1.5587 H   0  0  0  0  0  0
   -7.5449    4.3786    0.3664 H   0  0  0  0  0  0
   -9.2610    3.9302    0.5151 H   0  0  0  0  0  0
  -12.0247    0.8765    1.8405 H   0  0  0  0  0  0
  -11.0892    0.2247    0.4737 H   0  0  0  0  0  0
  -10.7910   -0.3751    2.1228 H   0  0  0  0  0  0
   -9.3899   -0.8600    0.7241 H   0  0  0  0  0  0
   -4.3089    0.9879   -0.0978 H   0  0  0  0  0  0
   -4.3843   -1.4836    1.7102 H   0  0  0  0  0  0
   -4.1696    0.1417    2.2908 H   0  0  0  0  0  0
   -2.3449   -2.7060    1.0566 H   0  0  0  0  0  0
    0.0948   -2.6688    0.6325 H   0  0  0  0  0  0
    3.8354   -0.5492    0.9894 H   0  0  0  0  0  0
    6.2732   -0.5438    0.5803 H   0  0  0  0  0  0
    5.5649   -0.3547   -3.6379 H   0  0  0  0  0  0
    3.1271   -0.3601   -3.2289 H   0  0  0  0  0  0
   -2.3502    1.6142    1.2335 H   0  0  0  0  0  0
   -0.0148    1.8825    3.4937 H   0  0  0  0  0  0
   -0.9558    3.7311    4.8289 H   0  0  0  0  0  0
   -1.2870    6.1313    1.2348 H   0  0  0  0  0  0
   -0.3659    4.2515   -0.0846 H   0  0  0  0  0  0
   -1.3248    7.1179    3.6950 H   0  0  0  0  0  0
   -1.5978    6.0001    4.9933 H   0  0  0  0  0  0
   -3.4996    6.7830    2.7592 H   0  0  0  0  0  0
   -2.1018    7.8763    5.5187 H   0  0  0  0  0  0
   -2.5985    8.7974    4.0788 H   0  0  0  0  0  0
   -3.3847    9.1037    5.6461 H   0  0  0  0  0  0
   -5.5893    6.8697    5.9218 H   0  0  0  0  0  0
   -4.1742    7.3765    6.8113 H   0  0  0  0  0  0
   -3.0978    5.1521    6.4351 H   0  0  0  0  0  0
   -4.7015    4.9152    7.0599 H   0  0  0  0  0  0
   -3.8330   -2.3736    0.1664 H   0  0  0  0  0  0
   -3.3951   -2.3714   -1.5588 H   0  0  0  0  0  0
   -2.6761   -1.1730   -0.4566 H   0  0  0  0  0  0
   -5.5877   -2.5373   -1.8114 H   0  0  0  0  0  0
   -6.4235   -1.0300   -2.1143 H   0  0  0  0  0  0
   -7.7029   -2.3849   -0.4937 H   0  0  0  0  0  0
   -6.3472   -2.4590    0.6024 H   0  0  0  0  0  0
  1  2  1  0  0  0
  1 59  1  0  0  0
  1 60  1  0  0  0
  1 61  1  0  0  0
  2  3  1  0  0  0
  3  4  2  0  0  0
  3  8  1  0  0  0
  4  5  1  0  0  0
  4 62  1  0  0  0
  5  6  2  0  0  0
  5 52  1  0  0  0
  6  7  1  0  0  0
  6 48  1  0  0  0
  7  8  2  0  0  0
  7 63  1  0  0  0
  8  9  1  0  0  0
  9 10  1  0  0  0
 10 11  2  0  0  0
 10 19  1  0  0  0
 11 12  1  0  0  0
 11 14  1  0  0  0
 12 13  1  0  0  0
 13 64  1  0  0  0
 13 65  1  0  0  0
 13 66  1  0  0  0
 14 15  1  0  0  0
 14 17  2  0  0  0
 15 16  1  0  0  0
 16 67  1  0  0  0
 16 68  1  0  0  0
 16 69  1  0  0  0
 17 18  1  0  0  0
 17 70  1  0  0  0
 18 19  2  0  0  0
 18 56  1  0  0  0
 19 20  1  0  0  0
 20 21  1  0  0  0
 20 53  1  0  0  0
 20 71  1  0  0  0
 21 22  1  0  0  0
 21 72  1  0  0  0
 21 73  1  0  0  0
 22 23  2  0  0  0
 22 39  1  0  0  0
 23 24  1  0  0  0
 23 74  1  0  0  0
 24 25  2  0  0  0
 24 75  1  0  0  0
 25 26  1  0  0  0
 25 38  1  0  0  0
 26 27  1  0  0  0
 27 28  2  0  0  0
 27 29  1  0  0  0
 29 30  2  0  0  0
 29 37  1  0  0  0
 30 31  1  0  0  0
 30 76  1  0  0  0
 31 32  2  0  0  0
 31 77  1  0  0  0
 32 33  1  0  0  0
 32 36  1  0  0  0
 33 34  2  0  0  0
 33 35  1  0  0  0
 36 37  2  0  0  0
 36 78  1  0  0  0
 37 79  1  0  0  0
 38 39  2  0  0  0
 38 40  1  0  0  0
 39 80  1  0  0  0
 40 41  1  0  0  0
 41 42  2  0  0  0
 41 46  1  0  0  0
 42 43  1  0  0  0
 42 81  1  0  0  0
 43 44  2  0  0  0
 43 82  1  0  0  0
 44 45  1  0  0  0
 44 47  1  0  0  0
 45 46  2  0  0  0
 45 83  1  0  0  0
 46 84  1  0  0  0
 47 48  1  0  0  0
 47 85  1  0  0  0
 47 86  1  0  0  0
 48 49  1  0  0  0
 48 87  1  0  0  0
 49 50  1  0  0  0
 49 51  1  0  0  0
 49 57  1  0  0  0
 50 88  1  0  0  0
 50 89  1  0  0  0
 50 90  1  0  0  0
 51 52  1  0  0  0
 51 91  1  0  0  0
 51 92  1  0  0  0
 52 93  1  0  0  0
 52 94  1  0  0  0
 53 54  1  0  0  0
 53 55  1  0  0  0
 53 58  1  0  0  0
 54 95  1  0  0  0
 54 96  1  0  0  0
 54 97  1  0  0  0
 55 56  1  0  0  0
 55 98  1  0  0  0
 55 99  1  0  0  0
 56100  1  0  0  0
 56101  1  0  0  0
M  CHG  4  33   1  35  -1  49   1  53   1
M  END
$$$$
Amsacrine
                    3D
 Schrodinger Suite 2021-2.
 48 51  0  0  1  0            999 V2000
    1.4005   -0.3631   -3.3323 C   0  0  0  0  0  0
    1.6468   -0.4067   -1.9751 O   0  0  0  0  0  0
    2.9814   -0.4295   -1.6249 C   0  0  0  0  0  0
    3.9593   -0.4083   -2.6122 C   0  0  0  0  0  0
    5.3034   -0.4313   -2.2595 C   0  0  0  0  0  0
    6.3308   -0.4091   -3.2966 N   0  0  0  0  0  0
    8.0136   -0.4379   -2.8551 S   0  0  0  0  0  0
    8.3909   -2.1767   -2.8048 C   0  0  0  0  0  0
    8.1227    0.0800   -1.4869 O   0  0  0  0  0  0
    8.7737    0.1496   -3.9639 O   0  0  0  0  0  0
    5.6696   -0.4755   -0.9195 C   0  0  0  0  0  0
    4.6917   -0.4967    0.0678 C   0  0  0  0  0  0
    3.3475   -0.4737   -0.2849 C   0  0  0  0  0  0
    2.3202   -0.4959    0.7522 N   0  0  0  0  0  0
    1.1795    0.4114    0.6694 C   0  0  0  0  0  0
   -0.1200   -0.0872    0.9220 C   0  0  0  0  0  0
   -0.3829   -1.4375    1.2560 C   0  0  0  0  0  0
   -1.6872   -1.8709    1.4942 C   0  0  0  0  0  0
   -2.7565   -0.9842    1.4084 C   0  0  0  0  0  0
   -2.5367    0.3528    1.0821 C   0  0  0  0  0  0
   -1.2236    0.8057    0.8384 C   0  0  0  0  0  0
   -0.9627    2.1155    0.5140 N   0  3  0  0  0  0
    0.2806    2.6437    0.2607 C   0  0  0  0  0  0
    0.4518    4.0050   -0.0659 C   0  0  0  0  0  0
    1.7307    4.4995   -0.3153 C   0  0  0  0  0  0
    2.8359    3.6566   -0.2432 C   0  0  0  0  0  0
    2.6820    2.3079    0.0785 C   0  0  0  0  0  0
    1.3990    1.7691    0.3385 C   0  0  0  0  0  0
   -1.7510    2.7425    0.4567 H   0  0  0  0  0  0
    0.3246   -0.3479   -3.5060 H   0  0  0  0  0  0
    1.8494    0.5361   -3.7542 H   0  0  0  0  0  0
    1.8331   -1.2429   -3.8084 H   0  0  0  0  0  0
    3.6743   -0.3739   -3.6555 H   0  0  0  0  0  0
    6.0581   -0.3763   -4.2945 H   0  0  0  0  0  0
    9.4377   -2.3137   -2.5335 H   0  0  0  0  0  0
    7.7569   -2.6649   -2.0646 H   0  0  0  0  0  0
    8.2092   -2.6165   -3.7854 H   0  0  0  0  0  0
    6.7161   -0.4934   -0.6450 H   0  0  0  0  0  0
    4.9768   -0.5311    1.1110 H   0  0  0  0  0  0
    2.4005   -1.1551    1.5461 H   0  0  0  0  0  0
    0.4402   -2.1369    1.3259 H   0  0  0  0  0  0
   -1.8752   -2.9061    1.7488 H   0  0  0  0  0  0
   -3.7614   -1.3408    1.5971 H   0  0  0  0  0  0
   -3.3698    1.0397    1.0162 H   0  0  0  0  0  0
   -0.4052    4.6626   -0.1226 H   0  0  0  0  0  0
    1.8718    5.5433   -0.5668 H   0  0  0  0  0  0
    3.8223    4.0566   -0.4398 H   0  0  0  0  0  0
    3.5494    1.6628    0.1314 H   0  0  0  0  0  0
  1  2  1  0  0  0
  1 30  1  0  0  0
  1 31  1  0  0  0
  1 32  1  0  0  0
  2  3  1  0  0  0
  3  4  2  0  0  0
  3 13  1  0  0  0
  4  5  1  0  0  0
  4 33  1  0  0  0
  5  6  1  0  0  0
  5 11  2  0  0  0
  6  7  1  0  0  0
  6 34  1  0  0  0
  7  8  1  0  0  0
  7  9  2  0  0  0
  7 10  2  0  0  0
  8 35  1  0  0  0
  8 36  1  0  0  0
  8 37  1  0  0  0
 11 12  1  0  0  0
 11 38  1  0  0  0
 12 13  2  0  0  0
 12 39  1  0  0  0
 13 14  1  0  0  0
 14 15  1  0  0  0
 14 40  1  0  0  0
 15 16  1  0  0  0
 15 28  2  0  0  0
 16 17  2  0  0  0
 16 21  1  0  0  0
 17 18  1  0  0  0
 17 41  1  0  0  0
 18 19  2  0  0  0
 18 42  1  0  0  0
 19 20  1  0  0  0
 19 43  1  0  0  0
 20 21  2  0  0  0
 20 44  1  0  0  0
 21 22  1  0  0  0
 22 23  2  0  0  0
 22 29  1  0  0  0
 23 24  1  0  0  0
 23 28  1  0  0  0
 24 25  2  0  0  0
 24 45  1  0  0  0
 25 26  1  0  0  0
 25 46  1  0  0  0
 26 27  2  0  0  0
 26 47  1  0  0  0
 27 28  1  0  0  0
 27 48  1  0  0  0
M  CHG  1  22   1
M  END
$$$$
Phenoxybenzamine
                    3D
 Schrodinger Suite 2021-2.
 44 45  0  0  1  0            999 V2000
   -0.4265    0.3731   -2.4617 C   0  0  0  0  0  0
    0.0947    0.6018   -1.0740 C   0  0  1  0  0  0
    1.5884    0.7326   -1.1160 C   0  0  0  0  0  0
    2.1373   -0.4252   -1.6286 O   0  0  0  0  0  0
    3.5143   -0.4279   -1.7182 C   0  0  0  0  0  0
    4.1759   -1.5423   -2.2202 C   0  0  0  0  0  0
    5.5628   -1.5450   -2.3104 C   0  0  0  0  0  0
    6.2881   -0.4332   -1.8988 C   0  0  0  0  0  0
    5.6266    0.6812   -1.3969 C   0  0  0  0  0  0
    4.2397    0.6839   -1.3066 C   0  0  0  0  0  0
   -0.4860    1.8267   -0.5317 N   0  3  2  0  0  0
    0.4281    2.9417   -0.7612 C   0  0  0  0  0  0
    0.6563    3.1062   -2.2346 C   0  0  0  0  0  0
   -0.9035    3.4346   -3.0289 Cl  0  0  0  0  0  0
   -0.7081    1.6666    0.9024 C   0  0  0  0  0  0
   -1.6472    0.5210    1.1382 C   0  0  0  0  0  0
   -1.1466   -0.7643    1.3081 C   0  0  0  0  0  0
   -2.0168   -1.8257    1.5265 C   0  0  0  0  0  0
   -3.3877   -1.6018    1.5751 C   0  0  0  0  0  0
   -3.8883   -0.3164    1.4052 C   0  0  0  0  0  0
   -3.0180    0.7450    1.1867 C   0  0  0  0  0  0
   -1.3665    2.0134   -0.9899 H   0  0  0  0  0  0
    0.0070   -0.5413   -2.8666 H   0  0  0  0  0  0
   -1.5119    0.2781   -2.4312 H   0  0  0  0  0  0
   -0.1534    1.2164   -3.0960 H   0  0  0  0  0  0
   -0.1785   -0.2416   -0.4397 H   0  0  0  0  0  0
    1.9671    0.8988   -0.1076 H   0  0  0  0  0  0
    1.8615    1.5759   -1.7503 H   0  0  0  0  0  0
    3.6112   -2.4079   -2.5406 H   0  0  0  0  0  0
    6.0779   -2.4126   -2.7013 H   0  0  0  0  0  0
    7.3679   -0.4353   -1.9691 H   0  0  0  0  0  0
    6.1912    1.5469   -1.0764 H   0  0  0  0  0  0
    3.7246    1.5515   -0.9158 H   0  0  0  0  0  0
    1.3784    2.7402   -0.2667 H   0  0  0  0  0  0
   -0.0054    3.8561   -0.3563 H   0  0  0  0  0  0
    1.0799    2.1917   -2.6499 H   0  0  0  0  0  0
    1.3296    3.9440   -2.4157 H   0  0  0  0  0  0
   -1.1416    2.5811    1.3073 H   0  0  0  0  0  0
    0.2422    1.4651    1.3969 H   0  0  0  0  0  0
   -0.0794   -0.9387    1.2702 H   0  0  0  0  0  0
   -1.6270   -2.8264    1.6588 H   0  0  0  0  0  0
   -4.0651   -2.4282    1.7452 H   0  0  0  0  0  0
   -4.9555   -0.1422    1.4430 H   0  0  0  0  0  0
   -3.4078    1.7457    1.0545 H   0  0  0  0  0  0
  1  2  1  0  0  0
  1 23  1  0  0  0
  1 24  1  0  0  0
  1 25  1  0  0  0
  2  3  1  0  0  0
  2 11  1  0  0  0
  2 26  1  0  0  0
  3  4  1  0  0  0
  3 27  1  0  0  0
  3 28  1  0  0  0
  4  5  1  0  0  0
  5  6  2  0  0  0
  5 10  1  0  0  0
  6  7  1  0  0  0
  6 29  1  0  0  0
  7  8  2  0  0  0
  7 30  1  0  0  0
  8  9  1  0  0  0
  8 31  1  0  0  0
  9 10  2  0  0  0
  9 32  1  0  0  0
 10 33  1  0  0  0
 11 12  1  0  0  0
 11 15  1  0  0  0
 11 22  1  0  0  0
 12 13  1  0  0  0
 12 34  1  0  0  0
 12 35  1  0  0  0
 13 14  1  0  0  0
 13 36  1  0  0  0
 13 37  1  0  0  0
 15 16  1  0  0  0
 15 38  1  0  0  0
 15 39  1  0  0  0
 16 17  2  0  0  0
 16 21  1  0  0  0
 17 18  1  0  0  0
 17 40  1  0  0  0
 18 19  2  0  0  0
 18 41  1  0  0  0
 19 20  1  0  0  0
 19 42  1  0  0  0
 20 21  2  0  0  0
 20 43  1  0  0  0
 21 44  1  0  0  0
M  CHG  1  11   1
M  END
$$$$
Carvedilol_derivate_13
                    3D
 Schrodinger Suite 2021-2.
 56 59  0  0  1  0            999 V2000
    1.4367    0.1222   -2.7210 C   0  0  0  0  0  0
    2.0743   -0.4250   -1.6262 O   0  0  0  0  0  0
    3.4526   -0.4286   -1.6956 C   0  0  0  0  0  0
    4.0935    0.0947   -2.8123 C   0  0  0  0  0  0
    5.4816    0.0910   -2.8821 C   0  0  0  0  0  0
    6.2287   -0.4358   -1.8353 C   0  0  0  0  0  0
    5.5877   -0.9591   -0.7185 C   0  0  0  0  0  0
    4.1996   -0.9555   -0.6488 C   0  0  0  0  0  0
    3.5632   -1.4750    0.4601 O   0  0  0  0  0  0
    4.4036   -1.9703    1.4362 C   0  0  0  0  0  0
    3.5868   -2.5006    2.5772 C   0  0  0  0  0  0
    2.7737   -1.4240    3.1353 N   0  3  0  0  0  0
    1.9787   -1.9401    4.2458 C   0  0  0  0  0  0
    1.1433   -0.8341    4.8192 C   0  0  0  0  0  0
    0.2299   -0.2957    3.7581 C   0  0  0  0  0  0
   -0.5933   -1.3060    3.3041 O   0  0  0  0  0  0
   -1.4853   -0.9331    2.3192 C   0  0  0  0  0  0
   -1.5098    0.3802    1.8544 C   0  0  0  0  0  0
   -2.4035    0.7696    0.8624 C   0  0  0  0  0  0
   -3.3051   -0.1330    0.2967 C   0  0  0  0  0  0
   -3.2808   -1.4498    0.7624 C   0  0  0  0  0  0
   -4.0356   -2.5476    0.4037 N   0  0  0  0  0  0
   -3.6534   -3.6487    1.1419 C   0  0  0  0  0  0
   -4.1236   -4.9641    1.1305 C   0  0  0  0  0  0
   -3.5286   -5.8710    2.0085 C   0  0  0  0  0  0
   -2.5040   -5.4873    2.8671 C   0  0  0  0  0  0
   -2.0345   -4.1753    2.8788 C   0  0  0  0  0  0
   -2.6102   -3.2364    2.0087 C   0  0  0  0  0  0
   -2.3783   -1.8678    1.7725 C   0  0  0  0  0  0
    0.3578    0.0792   -2.5721 H   0  0  0  0  0  0
    1.7027   -0.4411   -3.6154 H   0  0  0  0  0  0
    1.7460    1.1606   -2.8402 H   0  0  0  0  0  0
    3.5118    0.5049   -3.6273 H   0  0  0  0  0  0
    5.9806    0.4985   -3.7515 H   0  0  0  0  0  0
    7.3094   -0.4386   -1.8897 H   0  0  0  0  0  0
    6.1694   -1.3693    0.0965 H   0  0  0  0  0  0
    5.0106   -2.7740    1.0195 H   0  0  0  0  0  0
    5.0538   -1.1724    1.7948 H   0  0  0  0  0  0
    2.9365   -3.2985    2.2185 H   0  0  0  0  0  0
    4.2505   -2.8917    3.3482 H   0  0  0  0  0  0
    3.3762   -0.6846    3.4676 H   0  0  0  0  0  0
    1.3285   -2.7381    3.8871 H   0  0  0  0  0  0
    2.6425   -2.3313    5.0168 H   0  0  0  0  0  0
    0.5498   -1.2194    5.6482 H   0  0  0  0  0  0
    1.7936   -0.0362    5.1778 H   0  0  0  0  0  0
   -0.3771    0.5080    4.1748 H   0  0  0  0  0  0
    0.8235    0.0895    2.9290 H   0  0  0  0  0  0
   -0.8254    1.1094    2.2691 H   0  0  0  0  0  0
   -2.3973    1.7978    0.5231 H   0  0  0  0  0  0
   -3.9946    0.1835   -0.4740 H   0  0  0  0  0  0
   -4.7642   -2.5455   -0.2992 H   0  0  0  0  0  0
   -4.9195   -5.2761    0.4683 H   0  0  0  0  0  0
   -3.8706   -6.8981    2.0239 H   0  0  0  0  0  0
   -2.0671   -6.2197    3.5340 H   0  0  0  0  0  0
   -1.2372   -3.8875    3.5506 H   0  0  0  0  0  0
    2.1587   -1.0615    2.4208 H   0  0  0  0  0  0
  1  2  1  0  0  0
  1 30  1  0  0  0
  1 31  1  0  0  0
  1 32  1  0  0  0
  2  3  1  0  0  0
  3  4  2  0  0  0
  3  8  1  0  0  0
  4  5  1  0  0  0
  4 33  1  0  0  0
  5  6  2  0  0  0
  5 34  1  0  0  0
  6  7  1  0  0  0
  6 35  1  0  0  0
  7  8  2  0  0  0
  7 36  1  0  0  0
  8  9  1  0  0  0
  9 10  1  0  0  0
 10 11  1  0  0  0
 10 37  1  0  0  0
 10 38  1  0  0  0
 11 12  1  0  0  0
 11 39  1  0  0  0
 11 40  1  0  0  0
 12 13  1  0  0  0
 12 41  1  0  0  0
 12 56  1  0  0  0
 13 14  1  0  0  0
 13 42  1  0  0  0
 13 43  1  0  0  0
 14 15  1  0  0  0
 14 44  1  0  0  0
 14 45  1  0  0  0
 15 16  1  0  0  0
 15 46  1  0  0  0
 15 47  1  0  0  0
 16 17  1  0  0  0
 17 18  2  0  0  0
 17 29  1  0  0  0
 18 19  1  0  0  0
 18 48  1  0  0  0
 19 20  2  0  0  0
 19 49  1  0  0  0
 20 21  1  0  0  0
 20 50  1  0  0  0
 21 22  1  0  0  0
 21 29  2  0  0  0
 22 23  1  0  0  0
 22 51  1  0  0  0
 23 24  2  0  0  0
 23 28  1  0  0  0
 24 25  1  0  0  0
 24 52  1  0  0  0
 25 26  2  0  0  0
 25 53  1  0  0  0
 26 27  1  0  0  0
 26 54  1  0  0  0
 27 28  2  0  0  0
 27 55  1  0  0  0
 28 29  1  0  0  0
M  CHG  1  12   1
M  END
$$$$
ORC_13661
                    3D
 Schrodinger Suite 2021-2.
 46 49  0  0  1  0            999 V2000
   -4.4819   -0.0031   -1.0935 C   0  0  0  0  0  0
   -5.0375    0.4329    0.1844 N   0  3  1  0  0  0
   -5.4047   -0.7270    1.0302 C   0  0  2  0  0  0
   -5.4858   -0.1181    2.4456 C   0  0  0  0  0  0
   -4.6130    1.1522    2.3836 C   0  0  0  0  0  0
   -4.0009    1.1275    0.9759 C   0  0  1  0  0  0
   -2.7772    0.2457    0.9546 C   0  0  0  0  0  0
   -2.9349   -1.1172    0.9555 C   0  0  0  0  0  0
   -1.4117   -1.9561    0.9583 S   0  0  0  0  0  0
   -0.5542   -0.4367    0.9430 C   0  0  0  0  0  0
    0.9058   -0.4367    0.9430 N   0  0  0  0  0  0
    1.6775   -0.4367   -0.1389 C   0  0  0  0  0  0
    1.2391   -0.4367   -1.2834 O   0  0  0  0  0  0
    2.9746   -0.4367    0.1506 N   0  0  0  0  0  0
    4.0609   -0.4367   -0.8249 C   0  0  0  0  0  0
    5.3353   -0.0235   -0.4433 C   0  0  0  0  0  0
    6.3785   -0.0194   -1.3650 C   0  0  0  0  0  0
    6.1370   -0.4319   -2.6711 C   0  0  0  0  0  0
    7.4212   -0.4318   -3.8239 Cl  0  0  0  0  0  0
    4.8630   -0.8447   -3.0515 C   0  0  0  0  0  0
    3.8184   -0.8495   -2.1315 C   0  0  0  0  0  0
   -1.4061    0.6389    0.9430 C   0  0  0  0  0  0
   -0.9651    2.0726    0.9449 C   0  0  0  0  0  0
   -0.2291    2.3635    2.0180 N   0  0  0  0  0  0
   -1.2346    2.8982    0.0775 O   0  0  0  0  0  0
   -4.2743   -1.7889    0.9188 C   0  0  0  0  0  0
   -3.6270   -0.6552   -0.9144 H   0  0  0  0  0  0
   -4.1614    0.8672   -1.6662 H   0  0  0  0  0  0
   -5.2425   -0.5468   -1.6538 H   0  0  0  0  0  0
   -6.3605   -1.1638    0.7352 H   0  0  0  0  0  0
   -6.5141    0.1449    2.7004 H   0  0  0  0  0  0
   -5.1371   -0.8137    3.2116 H   0  0  0  0  0  0
   -5.2435    2.0345    2.5078 H   0  0  0  0  0  0
   -3.8544    1.1870    3.1685 H   0  0  0  0  0  0
   -3.7861    2.1261    0.5914 H   0  0  0  0  0  0
    1.2339   -0.4367    1.8960 H   0  0  0  0  0  0
    3.3671   -0.4367    1.0789 H   0  0  0  0  0  0
    5.5165    0.2961    0.5740 H   0  0  0  0  0  0
    7.3677    0.3009   -1.0704 H   0  0  0  0  0  0
    4.6857   -1.1633   -4.0689 H   0  0  0  0  0  0
    2.8297   -1.1708   -2.4301 H   0  0  0  0  0  0
    0.0160    1.7167    2.7540 H   0  0  0  0  0  0
    0.1732    3.2662    2.2261 H   0  0  0  0  0  0
   -4.3517   -2.5289    1.7176 H   0  0  0  0  0  0
   -4.3690   -2.3444   -0.0158 H   0  0  0  0  0  0
   -5.8322    1.0392    0.0474 H   0  0  0  0  0  0
  1  2  1  0  0  0
  1 27  1  0  0  0
  1 28  1  0  0  0
  1 29  1  0  0  0
  2  3  1  0  0  0
  2  6  1  0  0  0
  2 46  1  0  0  0
  3  4  1  0  0  0
  3 26  1  0  0  0
  3 30  1  0  0  0
  4  5  1  0  0  0
  4 31  1  0  0  0
  4 32  1  0  0  0
  5  6  1  0  0  0
  5 33  1  0  0  0
  5 34  1  0  0  0
  6  7  1  0  0  0
  6 35  1  0  0  0
  7  8  2  0  0  0
  7 22  1  0  0  0
  8  9  1  0  0  0
  8 26  1  0  0  0
  9 10  1  0  0  0
 10 11  1  0  0  0
 10 22  2  0  0  0
 11 12  1  0  0  0
 11 36  1  0  0  0
 12 13  2  0  0  0
 12 14  1  0  0  0
 14 15  1  0  0  0
 14 37  1  0  0  0
 15 16  2  0  0  0
 15 21  1  0  0  0
 16 17  1  0  0  0
 16 38  1  0  0  0
 17 18  2  0  0  0
 17 39  1  0  0  0
 18 19  1  0  0  0
 18 20  1  0  0  0
 20 21  2  0  0  0
 20 40  1  0  0  0
 21 41  1  0  0  0
 22 23  1  0  0  0
 23 24  1  0  0  0
 23 25  2  0  0  0
 24 42  1  0  0  0
 24 43  1  0  0  0
 26 44  1  0  0  0
 26 45  1  0  0  0
M  CHG  1   2   1
M  END
$$$$
