UoS-7692
                    3D
 Schrodinger Suite 2021-2.
 49 52  0  0  1  0            999 V2000
   -1.9560   -1.3778   -0.9811 O   0  0  0  0  0  0
   -2.1268   -0.7121    0.0378 C   0  0  0  0  0  0
   -1.9598    0.7784    0.0563 C   0  0  0  0  0  0
   -0.5931    1.1198   -0.3272 N   0  3  1  0  0  0
   -0.4303    2.6557   -0.3701 C   0  0  0  0  0  0
    1.0159    3.0002   -0.7744 C   0  0  0  0  0  0
    2.0502    2.3268    0.1475 C   0  0  2  0  0  0
    3.4401    2.6377   -0.3233 C   0  0  0  0  0  0
    4.1465    1.3927   -0.6103 N   0  0  0  0  0  0
    3.7235    0.4795   -1.5457 C   0  0  0  0  0  0
    4.5098   -0.5661   -1.6382 N   0  0  0  0  0  0
    5.5034   -0.3347   -0.7185 C   0  0  0  0  0  0
    6.6131   -1.1211   -0.3886 C   0  0  0  0  0  0
    7.4913   -0.6607    0.5950 C   0  0  0  0  0  0
    7.2735    0.5563    1.2398 C   0  0  0  0  0  0
    6.1756    1.3654    0.9343 C   0  0  0  0  0  0
    5.3019    0.8989   -0.0501 C   0  0  0  0  0  0
    1.8423    0.8019    0.2137 C   0  0  0  0  0  0
    0.4059    0.4313    0.6295 C   0  0  0  0  0  0
   -2.5159   -1.3367    1.3449 C   0  0  0  0  0  0
   -2.6983   -0.5372    2.4749 C   0  0  0  0  0  0
   -3.0606   -1.1200    3.6911 C   0  0  0  0  0  0
   -3.2406   -2.5012    3.7783 C   0  0  0  0  0  0
   -3.5917   -3.0581    4.9606 F   0  0  0  0  0  0
   -3.0580   -3.3019    2.6467 C   0  0  0  0  0  0
   -3.2305   -4.6420    2.7221 F   0  0  0  0  0  0
   -2.6960   -2.7189    1.4315 C   0  0  0  0  0  0
   -0.4855    0.7418   -1.2584 H   0  0  0  0  0  0
   -2.1602    1.1540    1.0597 H   0  0  0  0  0  0
   -2.6584    1.2310   -0.6473 H   0  0  0  0  0  0
   -0.6873    3.0306    0.6234 H   0  0  0  0  0  0
   -1.1643    3.0378   -1.0835 H   0  0  0  0  0  0
    1.1497    4.0837   -0.7520 H   0  0  0  0  0  0
    1.1895    2.7070   -1.8116 H   0  0  0  0  0  0
    1.9784    2.7512    1.1518 H   0  0  0  0  0  0
    3.9724    3.1869    0.4534 H   0  0  0  0  0  0
    3.3902    3.2440   -1.2277 H   0  0  0  0  0  0
    2.8188    0.6658   -2.1181 H   0  0  0  0  0  0
    6.7840   -2.0643   -0.8868 H   0  0  0  0  0  0
    8.3551   -1.2560    0.8629 H   0  0  0  0  0  0
    7.9756    0.8811    1.9974 H   0  0  0  0  0  0
    6.0162    2.3077    1.4406 H   0  0  0  0  0  0
    2.5487    0.3620    0.9205 H   0  0  0  0  0  0
    2.0761    0.3483   -0.7517 H   0  0  0  0  0  0
    0.2195   -0.6436    0.5709 H   0  0  0  0  0  0
    0.1629    0.7689    1.6398 H   0  0  0  0  0  0
   -2.5591    0.5338    2.4090 H   0  0  0  0  0  0
   -3.2028   -0.5048    4.5684 H   0  0  0  0  0  0
   -2.5558   -3.3416    0.5592 H   0  0  0  0  0  0
  1  2  2  0  0  0
  2  3  1  0  0  0
  2 20  1  0  0  0
  3  4  1  0  0  0
  3 29  1  0  0  0
  3 30  1  0  0  0
  4  5  1  0  0  0
  4 19  1  0  0  0
  4 28  1  0  0  0
  5  6  1  0  0  0
  5 31  1  0  0  0
  5 32  1  0  0  0
  6  7  1  0  0  0
  6 33  1  0  0  0
  6 34  1  0  0  0
  7  8  1  0  0  0
  7 18  1  0  0  0
  7 35  1  0  0  0
  8  9  1  0  0  0
  8 36  1  0  0  0
  8 37  1  0  0  0
  9 10  1  0  0  0
  9 17  1  0  0  0
 10 11  2  0  0  0
 10 38  1  0  0  0
 11 12  1  0  0  0
 12 13  2  0  0  0
 12 17  1  0  0  0
 13 14  1  0  0  0
 13 39  1  0  0  0
 14 15  2  0  0  0
 14 40  1  0  0  0
 15 16  1  0  0  0
 15 41  1  0  0  0
 16 17  2  0  0  0
 16 42  1  0  0  0
 18 19  1  0  0  0
 18 43  1  0  0  0
 18 44  1  0  0  0
 19 45  1  0  0  0
 19 46  1  0  0  0
 20 21  2  0  0  0
 20 27  1  0  0  0
 21 22  1  0  0  0
 21 47  1  0  0  0
 22 23  2  0  0  0
 22 48  1  0  0  0
 23 24  1  0  0  0
 23 25  1  0  0  0
 25 26  1  0  0  0
 25 27  2  0  0  0
 27 49  1  0  0  0
M  CHG  1   4   1
M  END
$$$$
UoS-3607
                    3D
 Schrodinger Suite 2021-2.
 50 53  0  0  1  0            999 V2000
   -2.0960   -0.7001   -0.7740 O   0  0  0  0  0  0
   -1.7176    0.1744   -0.0002 C   0  0  0  0  0  0
   -1.3809    1.5846   -0.3848 C   0  0  0  0  0  0
   -0.2902    1.5773   -1.3552 N   0  3  2  0  0  0
    0.0969    0.1208   -1.6955 C   0  0  0  0  0  0
    1.2489    0.1291   -2.7185 C   0  0  0  0  0  0
    2.4524    0.9559   -2.2276 C   0  0  2  0  0  0
    3.0772    0.2824   -1.0419 C   0  0  0  0  0  0
    2.4637   -0.4431   -0.1377 N   0  0  0  0  0  0
    3.4575   -0.8304    0.7279 C   0  0  0  0  0  0
    3.3772   -1.6191    1.8812 C   0  0  0  0  0  0
    4.5469   -1.8743    2.6006 C   0  0  0  0  0  0
    5.7732   -1.3572    2.1846 C   0  0  0  0  0  0
    5.8882   -0.5661    1.0381 C   0  0  0  0  0  0
    4.7146   -0.3153    0.3240 C   0  0  0  0  0  0
    4.4282    0.3953   -0.8187 N   0  0  0  0  0  0
    2.0377    2.3906   -1.8493 C   0  0  0  0  0  0
    0.8950    2.4089   -0.8161 C   0  0  0  0  0  0
   -1.5581   -0.0346    1.3070 N   0  0  0  0  0  0
   -1.8011   -1.2966    1.9996 C   0  0  0  0  0  0
   -2.2364   -2.4078    1.2872 C   0  0  0  0  0  0
   -2.4677   -3.6091    1.9465 C   0  0  0  0  0  0
   -2.2636   -3.6995    3.3183 C   0  0  0  0  0  0
   -1.8283   -2.5883    4.0307 C   0  0  0  0  0  0
   -1.6139   -2.6833    5.4718 N   0  3  0  0  0  0
   -1.2300   -1.6690    6.0414 O   0  0  0  0  0  0
   -1.8355   -3.7694    5.9932 O   0  5  0  0  0  0
   -1.5970   -1.3870    3.3714 C   0  0  0  0  0  0
   -0.6734    2.0262   -2.1757 H   0  0  0  0  0  0
   -1.0746    2.1398    0.5019 H   0  0  0  0  0  0
   -2.2569    2.0599   -0.8262 H   0  0  0  0  0  0
   -0.7998   -0.3692   -2.0822 H   0  0  0  0  0  0
    0.3758   -0.3620   -0.7560 H   0  0  0  0  0  0
    0.8913    0.5166   -3.6745 H   0  0  0  0  0  0
    1.5619   -0.8975   -2.9195 H   0  0  0  0  0  0
    3.2295    0.9798   -2.9949 H   0  0  0  0  0  0
    2.4283   -2.0210    2.2054 H   0  0  0  0  0  0
    4.5036   -2.4826    3.4951 H   0  0  0  0  0  0
    6.6592   -1.5758    2.7675 H   0  0  0  0  0  0
    6.8443   -0.1700    0.7243 H   0  0  0  0  0  0
    5.0535    0.9210   -1.4217 H   0  0  0  0  0  0
    1.7376    2.9429   -2.7420 H   0  0  0  0  0  0
    2.8973    2.9311   -1.4480 H   0  0  0  0  0  0
    0.5210    3.4178   -0.6266 H   0  0  0  0  0  0
    1.1872    1.9646    0.1383 H   0  0  0  0  0  0
   -1.2498    0.6546    1.9778 H   0  0  0  0  0  0
   -2.3953   -2.3375    0.2192 H   0  0  0  0  0  0
   -2.8066   -4.4742    1.3919 H   0  0  0  0  0  0
   -2.4437   -4.6348    3.8316 H   0  0  0  0  0  0
   -1.2581   -0.5219    3.9260 H   0  0  0  0  0  0
  1  2  2  0  0  0
  2  3  1  0  0  0
  2 19  1  0  0  0
  3  4  1  0  0  0
  3 30  1  0  0  0
  3 31  1  0  0  0
  4  5  1  0  0  0
  4 18  1  0  0  0
  4 29  1  0  0  0
  5  6  1  0  0  0
  5 32  1  0  0  0
  5 33  1  0  0  0
  6  7  1  0  0  0
  6 34  1  0  0  0
  6 35  1  0  0  0
  7  8  1  0  0  0
  7 17  1  0  0  0
  7 36  1  0  0  0
  8  9  2  0  0  0
  8 16  1  0  0  0
  9 10  1  0  0  0
 10 11  2  0  0  0
 10 15  1  0  0  0
 11 12  1  0  0  0
 11 37  1  0  0  0
 12 13  2  0  0  0
 12 38  1  0  0  0
 13 14  1  0  0  0
 13 39  1  0  0  0
 14 15  2  0  0  0
 14 40  1  0  0  0
 15 16  1  0  0  0
 16 41  1  0  0  0
 17 18  1  0  0  0
 17 42  1  0  0  0
 17 43  1  0  0  0
 18 44  1  0  0  0
 18 45  1  0  0  0
 19 20  1  0  0  0
 19 46  1  0  0  0
 20 21  2  0  0  0
 20 28  1  0  0  0
 21 22  1  0  0  0
 21 47  1  0  0  0
 22 23  2  0  0  0
 22 48  1  0  0  0
 23 24  1  0  0  0
 23 49  1  0  0  0
 24 25  1  0  0  0
 24 28  2  0  0  0
 25 26  2  0  0  0
 25 27  1  0  0  0
 28 50  1  0  0  0
M  CHG  3   4   1  25   1  27  -1
M  END
$$$$
UoS-962
                    3D
 Schrodinger Suite 2021-2.
 50 52  0  0  1  0            999 V2000
   -2.3251    1.3170   -3.0084 O   0  0  0  0  0  0
   -1.8924    0.5133   -1.9734 C   0  0  2  0  0  0
   -3.0747    0.0349   -1.1839 C   0  0  0  0  0  0
   -2.6421   -0.7688   -0.1489 O   0  0  0  0  0  0
   -3.6435   -1.2740    0.6550 C   0  0  0  0  0  0
   -3.0385   -2.1244    1.7325 C   0  0  0  0  0  0
   -3.3847   -3.4702    1.8299 C   0  0  0  0  0  0
   -2.8294   -4.2686    2.8259 C   0  0  0  0  0  0
   -1.9254   -3.7105    3.7233 C   0  0  0  0  0  0
   -1.2295   -4.6890    4.9629 Cl  0  0  0  0  0  0
   -1.5800   -2.3655    3.6252 C   0  0  0  0  0  0
   -2.1340   -1.5651    2.6301 C   0  0  0  0  0  0
   -0.9787    1.2981   -1.0793 C   0  0  0  0  0  0
    0.1721    1.7638   -1.8477 N   0  3  0  0  0  0
    0.8814    0.5740   -2.5308 C   0  0  0  0  0  0
    2.1581    1.0622   -3.2525 C   0  0  0  0  0  0
    3.0459    1.8098   -2.3549 N   0  0  0  0  0  0
    3.6313    0.9362   -1.3421 C   0  0  0  0  0  0
    4.9998    0.6719   -1.3393 C   0  0  0  0  0  0
    5.5367   -0.1658   -0.3619 C   0  0  0  0  0  0
    4.6848   -0.7195    0.5914 C   0  0  0  0  0  0
    3.3268   -0.4107    0.5267 C   0  0  0  0  0  0
    2.7907    0.4035   -0.4196 N   0  0  0  0  0  0
    2.3943    2.9724   -1.7412 C   0  0  0  0  0  0
    1.1288    2.5756   -0.9472 C   0  0  0  0  0  0
   -0.2140    2.3719   -2.5561 H   0  0  0  0  0  0
   -2.0845    0.9936   -3.9236 H   0  0  0  0  0  0
   -1.3555   -0.3441   -2.3791 H   0  0  0  0  0  0
   -3.7387   -0.5353   -1.8336 H   0  0  0  0  0  0
   -3.6117    0.8923   -0.7781 H   0  0  0  0  0  0
   -4.3223   -1.8784    0.0533 H   0  0  0  0  0  0
   -4.1953   -0.4507    1.1088 H   0  0  0  0  0  0
   -4.0883   -3.8981    1.1288 H   0  0  0  0  0  0
   -3.0970   -5.3128    2.9027 H   0  0  0  0  0  0
   -0.8766   -1.9414    4.3276 H   0  0  0  0  0  0
   -1.8637   -0.5204    2.5564 H   0  0  0  0  0  0
   -0.6369    0.6633   -0.2618 H   0  0  0  0  0  0
   -1.5156    2.1555   -0.6735 H   0  0  0  0  0  0
    0.1659    0.1193   -3.2192 H   0  0  0  0  0  0
    1.1039   -0.1596   -1.7529 H   0  0  0  0  0  0
    1.8904    1.6761   -4.1170 H   0  0  0  0  0  0
    2.6913    0.2016   -3.6656 H   0  0  0  0  0  0
    5.6398    1.1143   -2.0905 H   0  0  0  0  0  0
    6.5964   -0.3819   -0.3443 H   0  0  0  0  0  0
    5.0664   -1.3733    1.3637 H   0  0  0  0  0  0
    2.6415   -0.8273    1.2552 H   0  0  0  0  0  0
    2.1421    3.7119   -2.5063 H   0  0  0  0  0  0
    3.0964    3.4785   -1.0730 H   0  0  0  0  0  0
    1.3650    1.9524   -0.0820 H   0  0  0  0  0  0
    0.5772    3.4465   -0.5868 H   0  0  0  0  0  0
  1  2  1  0  0  0
  1 27  1  0  0  0
  2  3  1  0  0  0
  2 13  1  0  0  0
  2 28  1  0  0  0
  3  4  1  0  0  0
  3 29  1  0  0  0
  3 30  1  0  0  0
  4  5  1  0  0  0
  5  6  1  0  0  0
  5 31  1  0  0  0
  5 32  1  0  0  0
  6  7  2  0  0  0
  6 12  1  0  0  0
  7  8  1  0  0  0
  7 33  1  0  0  0
  8  9  2  0  0  0
  8 34  1  0  0  0
  9 10  1  0  0  0
  9 11  1  0  0  0
 11 12  2  0  0  0
 11 35  1  0  0  0
 12 36  1  0  0  0
 13 14  1  0  0  0
 13 37  1  0  0  0
 13 38  1  0  0  0
 14 15  1  0  0  0
 14 25  1  0  0  0
 14 26  1  0  0  0
 15 16  1  0  0  0
 15 39  1  0  0  0
 15 40  1  0  0  0
 16 17  1  0  0  0
 16 41  1  0  0  0
 16 42  1  0  0  0
 17 18  1  0  0  0
 17 24  1  0  0  0
 18 19  2  0  0  0
 18 23  1  0  0  0
 19 20  1  0  0  0
 19 43  1  0  0  0
 20 21  2  0  0  0
 20 44  1  0  0  0
 21 22  1  0  0  0
 21 45  1  0  0  0
 22 23  2  0  0  0
 22 46  1  0  0  0
 24 25  1  0  0  0
 24 47  1  0  0  0
 24 48  1  0  0  0
 25 49  1  0  0  0
 25 50  1  0  0  0
M  CHG  1  14   1
M  END
$$$$
E6_berbamine
                    3D
 Schrodinger Suite 2021-2.
101108  0  0  1  0            999 V2000
   -2.0800   -4.3319   -1.1609 C   0  0  0  0  0  0
   -2.0801   -3.0387   -0.6795 O   0  0  0  0  0  0
   -2.0962   -2.9284    0.6960 C   0  0  0  0  0  0
   -2.1253   -4.1090    1.4630 C   0  0  0  0  0  0
   -2.1339   -4.0285    2.8664 C   0  0  0  0  0  0
   -2.1000   -2.7504    3.4634 C   0  0  0  0  0  0
   -2.0941   -1.5438    2.7305 C   0  0  0  0  0  0
   -2.0981   -1.6553    1.3203 C   0  0  0  0  0  0
   -2.0597   -0.4798    0.6020 O   0  0  0  0  0  0
   -2.5448   -0.4236   -0.6849 C   0  0  0  0  0  0
   -3.8652   -0.8079   -1.0163 C   0  0  0  0  0  0
   -4.7101   -1.2599   -0.0232 O   0  0  0  0  0  0
   -5.4668   -0.2815    0.5887 C   0  0  0  0  0  0
   -4.3450   -0.7542   -2.3414 C   0  0  0  0  0  0
   -5.6380   -1.1484   -2.6193 O   0  0  0  0  0  0
   -6.0035   -1.0554   -3.9468 C   0  0  0  0  0  0
   -3.5164   -0.2981   -3.3837 C   0  0  0  0  0  0
   -2.2026    0.1149   -3.0981 C   0  0  0  0  0  0
   -1.7556    0.0528   -1.7586 C   0  0  0  0  0  0
   -0.3264    0.4831   -1.4174 C   0  0  1  0  0  0
    0.6417   -0.7147   -1.4565 C   0  0  0  0  0  0
    1.9637   -0.3876   -0.7934 C   0  0  0  0  0  0
    3.1540   -0.2588   -1.5390 C   0  0  0  0  0  0
    4.3631    0.0308   -0.8756 C   0  0  0  0  0  0
    4.3895    0.1770    0.5263 C   0  0  0  0  0  0
    5.5823    0.4406    1.1682 O   0  0  0  0  0  0
    6.3792    1.1438    0.3240 C   0  0  0  0  0  0
    6.0407    1.4630   -0.8102 O   0  0  0  0  0  0
    7.6829    1.4408    1.0037 C   0  0  0  0  0  0
    7.9048    1.0013    2.3035 C   0  0  0  0  0  0
    9.1127    1.2767    2.9334 C   0  0  0  0  0  0
   10.0987    1.9915    2.2636 C   0  0  0  0  0  0
   11.3676    2.2806    2.9254 N   0  3  0  0  0  0
   12.1949    2.9143    2.2815 O   0  0  0  0  0  0
   11.5009    1.8659    4.0703 O   0  5  0  0  0  0
    9.8768    2.4309    0.9639 C   0  0  0  0  0  0
    8.6688    2.1556    0.3340 C   0  0  0  0  0  0
    3.2090    0.0326    1.2806 C   0  0  0  0  0  0
    1.9957   -0.2329    0.6070 C   0  0  0  0  0  0
    3.2675    0.1583    2.6500 O   0  0  0  0  0  0
    2.3809   -0.5637    3.4107 C   0  0  0  0  0  0
    2.3302   -1.9707    3.3230 C   0  0  0  0  0  0
    1.3572   -2.6907    4.0404 C   0  0  0  0  0  0
    0.4366   -2.0108    4.8671 C   0  0  0  0  0  0
    0.5199   -0.6069    4.9940 C   0  0  0  0  0  0
    1.4876    0.1120    4.2646 C   0  0  0  0  0  0
   -0.6362   -2.7906    5.6074 C   0  0  0  0  0  0
   -2.0555   -2.6473    4.9945 C   0  0  2  0  0  0
   -3.0256   -3.5686    5.6394 N   0  3  2  0  0  0
   -2.6323   -3.7772    7.0298 C   0  0  0  0  0  0
   -3.2345   -4.8822    4.9736 C   0  0  0  0  0  0
   -2.2117   -5.1743    3.8598 C   0  0  0  0  0  0
    0.1981    1.6190   -2.2191 N   0  3  1  0  0  0
    1.6076    1.3370   -2.4751 C   0  0  0  0  0  0
   -0.4958    1.9144   -3.4942 C   0  0  0  0  0  0
   -1.1865    0.6755   -4.0761 C   0  0  0  0  0  0
   -3.9223   -3.1025    5.6384 H   0  0  0  0  0  0
    0.1578    2.4505   -1.6467 H   0  0  0  0  0  0
   -2.0668   -4.3139   -2.2507 H   0  0  0  0  0  0
   -1.1968   -4.8557   -0.7955 H   0  0  0  0  0  0
   -2.9766   -4.8477   -0.8171 H   0  0  0  0  0  0
   -2.1440   -5.0701    0.9667 H   0  0  0  0  0  0
   -2.0621   -0.5732    3.2055 H   0  0  0  0  0  0
   -6.0975   -0.7350    1.3534 H   0  0  0  0  0  0
   -4.8068    0.4527    1.0506 H   0  0  0  0  0  0
   -6.0941    0.2106   -0.1546 H   0  0  0  0  0  0
   -7.0351   -1.3873   -4.0637 H   0  0  0  0  0  0
   -5.9152   -0.0203   -4.2764 H   0  0  0  0  0  0
   -5.3488   -1.6856   -4.5489 H   0  0  0  0  0  0
   -3.9012   -0.2590   -4.3945 H   0  0  0  0  0  0
   -0.3437    0.8664   -0.3964 H   0  0  0  0  0  0
    0.7969   -1.0725   -2.4754 H   0  0  0  0  0  0
    0.2092   -1.5562   -0.9116 H   0  0  0  0  0  0
    3.1663   -0.4027   -2.6110 H   0  0  0  0  0  0
    5.2830    0.1217   -1.4372 H   0  0  0  0  0  0
    7.1372    0.4449    2.8249 H   0  0  0  0  0  0
    9.2855    0.9345    3.9453 H   0  0  0  0  0  0
   10.6443    2.9874    0.4425 H   0  0  0  0  0  0
    8.4960    2.4978   -0.6779 H   0  0  0  0  0  0
    1.0856   -0.3487    1.1789 H   0  0  0  0  0  0
    3.0266   -2.4945    2.6831 H   0  0  0  0  0  0
    1.3258   -3.7663    3.9385 H   0  0  0  0  0  0
   -0.1548   -0.0656    5.6416 H   0  0  0  0  0  0
    1.5436    1.1880    4.3506 H   0  0  0  0  0  0
   -0.6378   -2.4691    6.6503 H   0  0  0  0  0  0
   -0.3266   -3.8352    5.6273 H   0  0  0  0  0  0
   -2.3927   -1.6417    5.2526 H   0  0  0  0  0  0
   -1.6656   -4.2797    7.0625 H   0  0  0  0  0  0
   -2.5584   -2.8142    7.5349 H   0  0  0  0  0  0
   -3.3793   -4.3936    7.5302 H   0  0  0  0  0  0
   -4.2349   -4.8776    4.5367 H   0  0  0  0  0  0
   -3.2291   -5.6804    5.7175 H   0  0  0  0  0  0
   -1.2193   -5.3801    4.2619 H   0  0  0  0  0  0
   -2.5051   -6.0813    3.3274 H   0  0  0  0  0  0
    1.6929    0.4427   -3.0925 H   0  0  0  0  0  0
    2.0585    2.1820   -2.9952 H   0  0  0  0  0  0
    2.1234    1.1755   -1.5286 H   0  0  0  0  0  0
    0.2135    2.3360   -4.2081 H   0  0  0  0  0  0
   -1.2472    2.6846   -3.3098 H   0  0  0  0  0  0
   -1.7010    0.9433   -5.0011 H   0  0  0  0  0  0
   -0.4658   -0.0991   -4.3434 H   0  0  0  0  0  0
  1  2  1  0  0  0
  1 59  1  0  0  0
  1 60  1  0  0  0
  1 61  1  0  0  0
  2  3  1  0  0  0
  3  4  2  0  0  0
  3  8  1  0  0  0
  4  5  1  0  0  0
  4 62  1  0  0  0
  5  6  2  0  0  0
  5 52  1  0  0  0
  6  7  1  0  0  0
  6 48  1  0  0  0
  7  8  2  0  0  0
  7 63  1  0  0  0
  8  9  1  0  0  0
  9 10  1  0  0  0
 10 11  2  0  0  0
 10 19  1  0  0  0
 11 12  1  0  0  0
 11 14  1  0  0  0
 12 13  1  0  0  0
 13 64  1  0  0  0
 13 65  1  0  0  0
 13 66  1  0  0  0
 14 15  1  0  0  0
 14 17  2  0  0  0
 15 16  1  0  0  0
 16 67  1  0  0  0
 16 68  1  0  0  0
 16 69  1  0  0  0
 17 18  1  0  0  0
 17 70  1  0  0  0
 18 19  2  0  0  0
 18 56  1  0  0  0
 19 20  1  0  0  0
 20 21  1  0  0  0
 20 53  1  0  0  0
 20 71  1  0  0  0
 21 22  1  0  0  0
 21 72  1  0  0  0
 21 73  1  0  0  0
 22 23  2  0  0  0
 22 39  1  0  0  0
 23 24  1  0  0  0
 23 74  1  0  0  0
 24 25  2  0  0  0
 24 75  1  0  0  0
 25 26  1  0  0  0
 25 38  1  0  0  0
 26 27  1  0  0  0
 27 28  2  0  0  0
 27 29  1  0  0  0
 29 30  2  0  0  0
 29 37  1  0  0  0
 30 31  1  0  0  0
 30 76  1  0  0  0
 31 32  2  0  0  0
 31 77  1  0  0  0
 32 33  1  0  0  0
 32 36  1  0  0  0
 33 34  2  0  0  0
 33 35  1  0  0  0
 36 37  2  0  0  0
 36 78  1  0  0  0
 37 79  1  0  0  0
 38 39  2  0  0  0
 38 40  1  0  0  0
 39 80  1  0  0  0
 40 41  1  0  0  0
 41 42  2  0  0  0
 41 46  1  0  0  0
 42 43  1  0  0  0
 42 81  1  0  0  0
 43 44  2  0  0  0
 43 82  1  0  0  0
 44 45  1  0  0  0
 44 47  1  0  0  0
 45 46  2  0  0  0
 45 83  1  0  0  0
 46 84  1  0  0  0
 47 48  1  0  0  0
 47 85  1  0  0  0
 47 86  1  0  0  0
 48 49  1  0  0  0
 48 87  1  0  0  0
 49 50  1  0  0  0
 49 51  1  0  0  0
 49 57  1  0  0  0
 50 88  1  0  0  0
 50 89  1  0  0  0
 50 90  1  0  0  0
 51 52  1  0  0  0
 51 91  1  0  0  0
 51 92  1  0  0  0
 52 93  1  0  0  0
 52 94  1  0  0  0
 53 54  1  0  0  0
 53 55  1  0  0  0
 53 58  1  0  0  0
 54 95  1  0  0  0
 54 96  1  0  0  0
 54 97  1  0  0  0
 55 56  1  0  0  0
 55 98  1  0  0  0
 55 99  1  0  0  0
 56100  1  0  0  0
 56101  1  0  0  0
M  CHG  4  33   1  35  -1  49   1  53   1
M  END
$$$$
Amsacrine
                    3D
 Schrodinger Suite 2021-2.
 48 51  0  0  1  0            999 V2000
   -2.5829   -1.5184   -1.1430 C   0  0  0  0  0  0
   -1.6915   -1.2357   -0.1283 O   0  0  0  0  0  0
   -2.0170   -1.7730    1.1004 C   0  0  0  0  0  0
   -3.1711   -2.5342    1.2423 C   0  0  0  0  0  0
   -3.4989   -3.0753    2.4798 C   0  0  0  0  0  0
   -4.7114   -3.8750    2.6288 N   0  0  0  0  0  0
   -5.1219   -4.5525    4.1780 S   0  0  0  0  0  0
   -6.0043   -6.0382    3.7510 C   0  0  0  0  0  0
   -6.0730   -3.6410    4.8234 O   0  0  0  0  0  0
   -3.8717   -4.9514    4.8336 O   0  0  0  0  0  0
   -2.6726   -2.8553    3.5754 C   0  0  0  0  0  0
   -1.5185   -2.0941    3.4336 C   0  0  0  0  0  0
   -1.1907   -1.5530    2.1961 C   0  0  0  0  0  0
    0.0218   -0.7533    2.0471 N   0  0  0  0  0  0
    0.2058    0.0796    0.8623 C   0  0  0  0  0  0
    1.4556    0.0723    0.1996 C   0  0  0  0  0  0
    2.5565   -0.7091    0.6257 C   0  0  0  0  0  0
    3.7654   -0.6748   -0.0694 C   0  0  0  0  0  0
    3.9134    0.1287   -1.1962 C   0  0  0  0  0  0
    2.8518    0.9118   -1.6458 C   0  0  0  0  0  0
    1.6235    0.8874   -0.9533 C   0  0  0  0  0  0
    0.5516    1.6440   -1.3627 N   0  3  0  0  0  0
   -0.6789    1.6831   -0.7517 C   0  0  0  0  0  0
   -1.7229    2.4926   -1.2451 C   0  0  0  0  0  0
   -2.9555    2.5023   -0.5946 C   0  0  0  0  0  0
   -3.1584    1.7179    0.5369 C   0  0  0  0  0  0
   -2.1350    0.9121    1.0367 C   0  0  0  0  0  0
   -0.8696    0.8758    0.4032 C   0  0  0  0  0  0
    0.6788    2.2195   -2.1814 H   0  0  0  0  0  0
   -2.2406   -1.0532   -2.0675 H   0  0  0  0  0  0
   -2.6457   -2.5978   -1.2811 H   0  0  0  0  0  0
   -3.5663   -1.1277   -0.8821 H   0  0  0  0  0  0
   -3.8145   -2.7056    0.3894 H   0  0  0  0  0  0
   -5.3268   -4.0388    1.8130 H   0  0  0  0  0  0
   -6.3139   -6.5513    4.6615 H   0  0  0  0  0  0
   -6.8844   -5.7813    3.1615 H   0  0  0  0  0  0
   -5.3550   -6.6918    3.1686 H   0  0  0  0  0  0
   -2.9279   -3.2766    4.5389 H   0  0  0  0  0  0
   -0.8752   -1.9228    4.2866 H   0  0  0  0  0  0
    0.7507   -0.7769    2.7814 H   0  0  0  0  0  0
    2.4540   -1.3380    1.5006 H   0  0  0  0  0  0
    4.5998   -1.2769    0.2664 H   0  0  0  0  0  0
    4.8601    0.1410   -1.7216 H   0  0  0  0  0  0
    2.9698    1.5352   -2.5219 H   0  0  0  0  0  0
   -1.5682    3.1034   -2.1245 H   0  0  0  0  0  0
   -3.7629    3.1208   -0.9664 H   0  0  0  0  0  0
   -4.1216    1.7370    1.0304 H   0  0  0  0  0  0
   -2.3054    0.3066    1.9175 H   0  0  0  0  0  0
  1  2  1  0  0  0
  1 30  1  0  0  0
  1 31  1  0  0  0
  1 32  1  0  0  0
  2  3  1  0  0  0
  3  4  2  0  0  0
  3 13  1  0  0  0
  4  5  1  0  0  0
  4 33  1  0  0  0
  5  6  1  0  0  0
  5 11  2  0  0  0
  6  7  1  0  0  0
  6 34  1  0  0  0
  7  8  1  0  0  0
  7  9  2  0  0  0
  7 10  2  0  0  0
  8 35  1  0  0  0
  8 36  1  0  0  0
  8 37  1  0  0  0
 11 12  1  0  0  0
 11 38  1  0  0  0
 12 13  2  0  0  0
 12 39  1  0  0  0
 13 14  1  0  0  0
 14 15  1  0  0  0
 14 40  1  0  0  0
 15 16  1  0  0  0
 15 28  2  0  0  0
 16 17  2  0  0  0
 16 21  1  0  0  0
 17 18  1  0  0  0
 17 41  1  0  0  0
 18 19  2  0  0  0
 18 42  1  0  0  0
 19 20  1  0  0  0
 19 43  1  0  0  0
 20 21  2  0  0  0
 20 44  1  0  0  0
 21 22  1  0  0  0
 22 23  2  0  0  0
 22 29  1  0  0  0
 23 24  1  0  0  0
 23 28  1  0  0  0
 24 25  2  0  0  0
 24 45  1  0  0  0
 25 26  1  0  0  0
 25 46  1  0  0  0
 26 27  2  0  0  0
 26 47  1  0  0  0
 27 28  1  0  0  0
 27 48  1  0  0  0
M  CHG  1  22   1
M  END
$$$$
Phenoxybenzamine
                    3D
 Schrodinger Suite 2021-2.
 44 45  0  0  1  0            999 V2000
   -1.6596    0.1103   -2.6372 C   0  0  0  0  0  0
   -1.4828    0.9843   -1.4311 C   0  0  1  0  0  0
   -2.1369    0.3388   -0.2456 C   0  0  0  0  0  0
   -1.5552   -0.8906   -0.0120 O   0  0  0  0  0  0
   -2.0742   -1.5872    1.0603 C   0  0  0  0  0  0
   -1.5647   -2.8377    1.3889 C   0  0  0  0  0  0
   -2.0873   -3.5392    2.4689 C   0  0  0  0  0  0
   -3.1196   -2.9901    3.2202 C   0  0  0  0  0  0
   -3.6292   -1.7395    2.8915 C   0  0  0  0  0  0
   -3.1065   -1.0380    1.8116 C   0  0  0  0  0  0
   -0.0585    1.1627   -1.1640 N   0  3  2  0  0  0
    0.5312    1.9980   -2.2060 C   0  0  0  0  0  0
   -0.1467    3.3360   -2.2176 C   0  0  0  0  0  0
   -0.8912    3.5941   -3.8149 Cl  0  0  0  0  0  0
    0.6014   -0.1397   -1.1526 C   0  0  0  0  0  0
    2.0646    0.0436   -0.8782 C   0  0  0  0  0  0
    2.5329    0.0326    0.4304 C   0  0  0  0  0  0
    3.8886    0.2024    0.6847 C   0  0  0  0  0  0
    4.7761    0.3832   -0.3695 C   0  0  0  0  0  0
    4.3078    0.3942   -1.6780 C   0  0  0  0  0  0
    2.9520    0.2244   -1.9323 C   0  0  0  0  0  0
    0.0622    1.6091   -0.2660 H   0  0  0  0  0  0
   -2.7229   -0.0229   -2.8367 H   0  0  0  0  0  0
   -1.1842    0.5793   -3.4987 H   0  0  0  0  0  0
   -1.2001   -0.8607   -2.4528 H   0  0  0  0  0  0
   -1.9422    1.9554   -1.6156 H   0  0  0  0  0  0
   -3.2002    0.2056   -0.4450 H   0  0  0  0  0  0
   -2.0083    0.9739    0.6309 H   0  0  0  0  0  0
   -0.7609   -3.2652    0.8039 H   0  0  0  0  0  0
   -1.6906   -4.5128    2.7248 H   0  0  0  0  0  0
   -3.5266   -3.5362    4.0610 H   0  0  0  0  0  0
   -4.4329   -1.3119    3.4766 H   0  0  0  0  0  0
   -3.5031   -0.0643    1.5558 H   0  0  0  0  0  0
    0.4009    1.5162   -3.1750 H   0  0  0  0  0  0
    1.5945    2.1312   -2.0066 H   0  0  0  0  0  0
    0.5832    4.1247   -2.0353 H   0  0  0  0  0  0
   -0.9249    3.3656   -1.4550 H   0  0  0  0  0  0
    0.4710   -0.6214   -2.1217 H   0  0  0  0  0  0
    0.1611   -0.7632   -0.3746 H   0  0  0  0  0  0
    1.8420   -0.1082    1.2511 H   0  0  0  0  0  0
    4.2533    0.1938    1.7034 H   0  0  0  0  0  0
    5.8317    0.5154   -0.1715 H   0  0  0  0  0  0
    4.9988    0.5351   -2.4988 H   0  0  0  0  0  0
    2.5875    0.2331   -2.9511 H   0  0  0  0  0  0
  1  2  1  0  0  0
  1 23  1  0  0  0
  1 24  1  0  0  0
  1 25  1  0  0  0
  2  3  1  0  0  0
  2 11  1  0  0  0
  2 26  1  0  0  0
  3  4  1  0  0  0
  3 27  1  0  0  0
  3 28  1  0  0  0
  4  5  1  0  0  0
  5  6  2  0  0  0
  5 10  1  0  0  0
  6  7  1  0  0  0
  6 29  1  0  0  0
  7  8  2  0  0  0
  7 30  1  0  0  0
  8  9  1  0  0  0
  8 31  1  0  0  0
  9 10  2  0  0  0
  9 32  1  0  0  0
 10 33  1  0  0  0
 11 12  1  0  0  0
 11 15  1  0  0  0
 11 22  1  0  0  0
 12 13  1  0  0  0
 12 34  1  0  0  0
 12 35  1  0  0  0
 13 14  1  0  0  0
 13 36  1  0  0  0
 13 37  1  0  0  0
 15 16  1  0  0  0
 15 38  1  0  0  0
 15 39  1  0  0  0
 16 17  2  0  0  0
 16 21  1  0  0  0
 17 18  1  0  0  0
 17 40  1  0  0  0
 18 19  2  0  0  0
 18 41  1  0  0  0
 19 20  1  0  0  0
 19 42  1  0  0  0
 20 21  2  0  0  0
 20 43  1  0  0  0
 21 44  1  0  0  0
M  CHG  1  11   1
M  END
$$$$
Carvedilol_derivate_13
                    3D
 Schrodinger Suite 2021-2.
 56 59  0  0  1  0            999 V2000
    2.6538    0.1197    3.4662 C   0  0  0  0  0  0
    2.4017    0.8177    2.3027 O   0  0  0  0  0  0
    2.8710    0.2202    1.1507 C   0  0  0  0  0  0
    3.5409   -0.9955    1.2218 C   0  0  0  0  0  0
    4.0137   -1.5972    0.0616 C   0  0  0  0  0  0
    3.8166   -0.9834   -1.1696 C   0  0  0  0  0  0
    3.1467    0.2322   -1.2407 C   0  0  0  0  0  0
    2.6739    0.8340   -0.0805 C   0  0  0  0  0  0
    2.0086    2.0410   -0.1511 O   0  0  0  0  0  0
    1.8707    2.5574   -1.4234 C   0  0  0  0  0  0
    0.9011    1.7180   -2.2013 C   0  0  0  0  0  0
   -0.3956    1.7243   -1.5303 N   0  3  0  0  0  0
   -1.3393    0.9072   -2.2875 C   0  0  0  0  0  0
   -2.6715    0.9137   -1.5981 C   0  0  0  0  0  0
   -2.5215    0.3524   -0.2152 C   0  0  0  0  0  0
   -2.0500   -0.9422   -0.2928 O   0  0  0  0  0  0
   -1.8693   -1.5709    0.9223 C   0  0  0  0  0  0
   -2.1574   -0.9008    2.1097 C   0  0  0  0  0  0
   -1.9799   -1.5224    3.3410 C   0  0  0  0  0  0
   -1.5094   -2.8327    3.4365 C   0  0  0  0  0  0
   -1.2204   -3.5049    2.2464 C   0  0  0  0  0  0
   -0.7495   -4.7824    2.0234 N   0  0  0  0  0  0
   -0.6153   -5.0095    0.6692 C   0  0  0  0  0  0
   -0.1798   -6.1385   -0.0289 C   0  0  0  0  0  0
   -0.1523   -6.0664   -1.4224 C   0  0  0  0  0  0
   -0.5427   -4.9158   -2.0992 C   0  0  0  0  0  0
   -0.9771   -3.7894   -1.4034 C   0  0  0  0  0  0
   -1.0175   -3.8267   -0.0008 C   0  0  0  0  0  0
   -1.3941   -2.8903    0.9809 C   0  0  0  0  0  0
    2.2468    0.6692    4.3150 H   0  0  0  0  0  0
    3.7298    0.0006    3.5925 H   0  0  0  0  0  0
    2.1837   -0.8622    3.4099 H   0  0  0  0  0  0
    3.6945   -1.4734    2.1803 H   0  0  0  0  0  0
    4.5353   -2.5437    0.1169 H   0  0  0  0  0  0
    4.1847   -1.4519   -2.0728 H   0  0  0  0  0  0
    2.9931    0.7102   -2.1993 H   0  0  0  0  0  0
    1.4983    3.5800   -1.3621 H   0  0  0  0  0  0
    2.8388    2.5527   -1.9243 H   0  0  0  0  0  0
    0.7922    2.1259   -3.2062 H   0  0  0  0  0  0
    1.2736    0.6954   -2.2626 H   0  0  0  0  0  0
   -0.2946    1.3464   -0.5992 H   0  0  0  0  0  0
   -1.4482    1.3151   -3.2924 H   0  0  0  0  0  0
   -0.9669   -0.1153   -2.3487 H   0  0  0  0  0  0
   -3.0439    1.9363   -1.5368 H   0  0  0  0  0  0
   -3.3761    0.3037   -2.1634 H   0  0  0  0  0  0
   -1.8170    0.9625    0.3501 H   0  0  0  0  0  0
   -3.4896    0.3572    0.2858 H   0  0  0  0  0  0
   -2.5246    0.1171    2.0761 H   0  0  0  0  0  0
   -2.2130   -0.9744    4.2452 H   0  0  0  0  0  0
   -1.3760   -3.3038    4.4007 H   0  0  0  0  0  0
   -0.5338   -5.4555    2.7482 H   0  0  0  0  0  0
    0.1264   -7.0396    0.4845 H   0  0  0  0  0  0
    0.1802   -6.9247   -1.9925 H   0  0  0  0  0  0
   -0.5075   -4.8979   -3.1811 H   0  0  0  0  0  0
   -1.2784   -2.8998   -1.9397 H   0  0  0  0  0  0
   -0.7406    2.6718   -1.4735 H   0  0  0  0  0  0
  1  2  1  0  0  0
  1 30  1  0  0  0
  1 31  1  0  0  0
  1 32  1  0  0  0
  2  3  1  0  0  0
  3  4  2  0  0  0
  3  8  1  0  0  0
  4  5  1  0  0  0
  4 33  1  0  0  0
  5  6  2  0  0  0
  5 34  1  0  0  0
  6  7  1  0  0  0
  6 35  1  0  0  0
  7  8  2  0  0  0
  7 36  1  0  0  0
  8  9  1  0  0  0
  9 10  1  0  0  0
 10 11  1  0  0  0
 10 37  1  0  0  0
 10 38  1  0  0  0
 11 12  1  0  0  0
 11 39  1  0  0  0
 11 40  1  0  0  0
 12 13  1  0  0  0
 12 41  1  0  0  0
 12 56  1  0  0  0
 13 14  1  0  0  0
 13 42  1  0  0  0
 13 43  1  0  0  0
 14 15  1  0  0  0
 14 44  1  0  0  0
 14 45  1  0  0  0
 15 16  1  0  0  0
 15 46  1  0  0  0
 15 47  1  0  0  0
 16 17  1  0  0  0
 17 18  2  0  0  0
 17 29  1  0  0  0
 18 19  1  0  0  0
 18 48  1  0  0  0
 19 20  2  0  0  0
 19 49  1  0  0  0
 20 21  1  0  0  0
 20 50  1  0  0  0
 21 22  1  0  0  0
 21 29  2  0  0  0
 22 23  1  0  0  0
 22 51  1  0  0  0
 23 24  2  0  0  0
 23 28  1  0  0  0
 24 25  1  0  0  0
 24 52  1  0  0  0
 25 26  2  0  0  0
 25 53  1  0  0  0
 26 27  1  0  0  0
 26 54  1  0  0  0
 27 28  2  0  0  0
 27 55  1  0  0  0
 28 29  1  0  0  0
M  CHG  1  12   1
M  END
$$$$
