UoS-7692
                    3D
 Schrodinger Suite 2021-2.
 49 52  0  0  1  0            999 V2000
    4.4958    2.6415    2.3219 O   0  0  0  0  0  0
    3.6778    1.7346    2.4588 C   0  0  0  0  0  0
    2.6360    1.7538    3.5378 C   0  0  0  0  0  0
    1.3078    1.7198    2.9326 N   0  3  1  0  0  0
    0.2301    1.6773    4.0389 C   0  0  0  0  0  0
   -1.1648    1.6435    3.3856 C   0  0  0  0  0  0
   -1.3743    2.8154    2.4081 C   0  0  2  0  0  0
   -2.7175    2.7037    1.7498 C   0  0  0  0  0  0
   -2.7806    1.4650    0.9797 N   0  0  0  0  0  0
   -2.4084    1.3730   -0.3398 C   0  0  0  0  0  0
   -2.5470    0.1653   -0.8320 N   0  0  0  0  0  0
   -3.0355   -0.5805    0.2130 C   0  0  0  0  0  0
   -3.3703   -1.9385    0.2586 C   0  0  0  0  0  0
   -3.8536   -2.4692    1.4569 C   0  0  0  0  0  0
   -4.0022   -1.6685    2.5888 C   0  0  0  0  0  0
   -3.6772   -0.3092    2.5771 C   0  0  0  0  0  0
   -3.1946    0.2143    1.3757 C   0  0  0  0  0  0
   -0.2645    2.8686    1.3410 C   0  0  0  0  0  0
    1.1410    2.9169    1.9702 C   0  0  0  0  0  0
    3.6553    0.5354    1.5579 C   0  0  0  0  0  0
    2.7054   -0.4689    1.7543 C   0  0  0  0  0  0
    2.6857   -1.5847    0.9148 C   0  0  0  0  0  0
    3.6146   -1.6970   -0.1207 C   0  0  0  0  0  0
    3.5886   -2.7814   -0.9296 F   0  0  0  0  0  0
    4.5658   -0.6912   -0.3174 C   0  0  0  0  0  0
    5.4702   -0.7919   -1.3189 F   0  0  0  0  0  0
    4.5851    0.4236    0.5219 C   0  0  0  0  0  0
    1.2872    0.8570    2.4065 H   0  0  0  0  0  0
    2.7424    2.6630    4.1296 H   0  0  0  0  0  0
    2.7640    0.8839    4.1820 H   0  0  0  0  0  0
    0.3786    2.5626    4.6618 H   0  0  0  0  0  0
    0.4269    0.7910    4.6467 H   0  0  0  0  0  0
   -1.9298    1.6691    4.1642 H   0  0  0  0  0  0
   -1.3077    0.6924    2.8686 H   0  0  0  0  0  0
   -1.3963    3.7567    2.9625 H   0  0  0  0  0  0
   -2.8675    3.5536    1.0839 H   0  0  0  0  0  0
   -3.4965    2.6977    2.5122 H   0  0  0  0  0  0
   -2.0436    2.2516   -0.8651 H   0  0  0  0  0  0
   -3.2561   -2.5610   -0.6170 H   0  0  0  0  0  0
   -4.1176   -3.5178    1.5103 H   0  0  0  0  0  0
   -4.3798   -2.1143    3.5003 H   0  0  0  0  0  0
   -3.7963    0.3028    3.4608 H   0  0  0  0  0  0
   -0.4057    3.7432    0.7029 H   0  0  0  0  0  0
   -0.3418    2.0069    0.6750 H   0  0  0  0  0  0
    1.9345    2.8427    1.2230 H   0  0  0  0  0  0
    1.3048    3.8230    2.5583 H   0  0  0  0  0  0
    1.9846   -0.3832    2.5567 H   0  0  0  0  0  0
    1.9521   -2.3645    1.0634 H   0  0  0  0  0  0
    5.3221    1.1987    0.3662 H   0  0  0  0  0  0
  1  2  2  0  0  0
  2  3  1  0  0  0
  2 20  1  0  0  0
  3  4  1  0  0  0
  3 29  1  0  0  0
  3 30  1  0  0  0
  4  5  1  0  0  0
  4 19  1  0  0  0
  4 28  1  0  0  0
  5  6  1  0  0  0
  5 31  1  0  0  0
  5 32  1  0  0  0
  6  7  1  0  0  0
  6 33  1  0  0  0
  6 34  1  0  0  0
  7  8  1  0  0  0
  7 18  1  0  0  0
  7 35  1  0  0  0
  8  9  1  0  0  0
  8 36  1  0  0  0
  8 37  1  0  0  0
  9 10  1  0  0  0
  9 17  1  0  0  0
 10 11  2  0  0  0
 10 38  1  0  0  0
 11 12  1  0  0  0
 12 13  2  0  0  0
 12 17  1  0  0  0
 13 14  1  0  0  0
 13 39  1  0  0  0
 14 15  2  0  0  0
 14 40  1  0  0  0
 15 16  1  0  0  0
 15 41  1  0  0  0
 16 17  2  0  0  0
 16 42  1  0  0  0
 18 19  1  0  0  0
 18 43  1  0  0  0
 18 44  1  0  0  0
 19 45  1  0  0  0
 19 46  1  0  0  0
 20 21  2  0  0  0
 20 27  1  0  0  0
 21 22  1  0  0  0
 21 47  1  0  0  0
 22 23  2  0  0  0
 22 48  1  0  0  0
 23 24  1  0  0  0
 23 25  1  0  0  0
 25 26  1  0  0  0
 25 27  2  0  0  0
 27 49  1  0  0  0
M  CHG  1   4   1
M  END
$$$$
UoS-3607
                    3D
 Schrodinger Suite 2021-2.
 50 53  0  0  1  0            999 V2000
    0.5390   -0.1287   -2.1802 O   0  0  0  0  0  0
    1.1349    0.9437   -2.1403 C   0  0  0  0  0  0
    0.8808    2.1099   -3.0489 C   0  0  0  0  0  0
   -0.5026    2.5515   -2.8987 N   0  3  2  0  0  0
   -0.7429    3.0354   -1.4513 C   0  0  0  0  0  0
   -2.2060    3.4962   -1.3079 C   0  0  0  0  0  0
   -3.2018    2.4001   -1.7323 C   0  0  2  0  0  0
   -3.1282    1.2519   -0.7699 C   0  0  0  0  0  0
   -2.3637    0.1910   -0.8707 N   0  0  0  0  0  0
   -2.6595   -0.5559    0.2435 C   0  0  0  0  0  0
   -2.1408   -1.7896    0.6528 C   0  0  0  0  0  0
   -2.6100   -2.3520    1.8420 C   0  0  0  0  0  0
   -3.5753   -1.7035    2.6114 C   0  0  0  0  0  0
   -4.1139   -0.4709    2.2315 C   0  0  0  0  0  0
   -3.6400    0.0852    1.0414 C   0  0  0  0  0  0
   -3.9161    1.2455    0.3557 N   0  0  0  0  0  0
   -2.9170    1.8981   -3.1605 C   0  0  0  0  0  0
   -1.4623    1.4184   -3.3258 C   0  0  0  0  0  0
    2.1029    1.2022   -1.2607 N   0  0  0  0  0  0
    2.5897    0.2788   -0.2399 C   0  0  0  0  0  0
    1.8021   -0.7949    0.1582 C   0  0  0  0  0  0
    2.2654   -1.6740    1.1299 C   0  0  0  0  0  0
    3.5163   -1.4793    1.7035 C   0  0  0  0  0  0
    4.3040   -0.4057    1.3053 C   0  0  0  0  0  0
    5.6180   -0.2013    1.9077 N   0  3  0  0  0  0
    6.2628    0.7629    1.5137 O   0  0  0  0  0  0
    5.9683   -1.0108    2.7579 O   0  5  0  0  0  0
    3.8406    0.4734    0.3335 C   0  0  0  0  0  0
   -0.5942    3.3308   -3.5358 H   0  0  0  0  0  0
    1.0566    1.8107   -4.0821 H   0  0  0  0  0  0
    1.5534    2.9271   -2.7879 H   0  0  0  0  0  0
   -0.0316    3.8420   -1.2589 H   0  0  0  0  0  0
   -0.5017    2.1984   -0.7919 H   0  0  0  0  0  0
   -2.3681    4.4004   -1.8979 H   0  0  0  0  0  0
   -2.3942    3.7869   -0.2724 H   0  0  0  0  0  0
   -4.2253    2.7758   -1.6635 H   0  0  0  0  0  0
   -1.3928   -2.2940    0.0585 H   0  0  0  0  0  0
   -2.2198   -3.3058    2.1739 H   0  0  0  0  0  0
   -3.9154   -2.1695    3.5276 H   0  0  0  0  0  0
   -4.8622    0.0235    2.8356 H   0  0  0  0  0  0
   -4.5665    1.9897    0.5884 H   0  0  0  0  0  0
   -3.1310    2.6857   -3.8856 H   0  0  0  0  0  0
   -3.5979    1.0814   -3.4088 H   0  0  0  0  0  0
   -1.2222    1.1658   -4.3612 H   0  0  0  0  0  0
   -1.2332    0.5541   -2.6979 H   0  0  0  0  0  0
    2.6179    2.0684   -1.1929 H   0  0  0  0  0  0
    0.8281   -0.9464   -0.2883 H   0  0  0  0  0  0
    1.6522   -2.5099    1.4399 H   0  0  0  0  0  0
    3.8770   -2.1638    2.4600 H   0  0  0  0  0  0
    4.4538    1.3093    0.0235 H   0  0  0  0  0  0
  1  2  2  0  0  0
  2  3  1  0  0  0
  2 19  1  0  0  0
  3  4  1  0  0  0
  3 30  1  0  0  0
  3 31  1  0  0  0
  4  5  1  0  0  0
  4 18  1  0  0  0
  4 29  1  0  0  0
  5  6  1  0  0  0
  5 32  1  0  0  0
  5 33  1  0  0  0
  6  7  1  0  0  0
  6 34  1  0  0  0
  6 35  1  0  0  0
  7  8  1  0  0  0
  7 17  1  0  0  0
  7 36  1  0  0  0
  8  9  2  0  0  0
  8 16  1  0  0  0
  9 10  1  0  0  0
 10 11  2  0  0  0
 10 15  1  0  0  0
 11 12  1  0  0  0
 11 37  1  0  0  0
 12 13  2  0  0  0
 12 38  1  0  0  0
 13 14  1  0  0  0
 13 39  1  0  0  0
 14 15  2  0  0  0
 14 40  1  0  0  0
 15 16  1  0  0  0
 16 41  1  0  0  0
 17 18  1  0  0  0
 17 42  1  0  0  0
 17 43  1  0  0  0
 18 44  1  0  0  0
 18 45  1  0  0  0
 19 20  1  0  0  0
 19 46  1  0  0  0
 20 21  2  0  0  0
 20 28  1  0  0  0
 21 22  1  0  0  0
 21 47  1  0  0  0
 22 23  2  0  0  0
 22 48  1  0  0  0
 23 24  1  0  0  0
 23 49  1  0  0  0
 24 25  1  0  0  0
 24 28  2  0  0  0
 25 26  2  0  0  0
 25 27  1  0  0  0
 28 50  1  0  0  0
M  CHG  3   4   1  25   1  27  -1
M  END
$$$$
UoS-962
                    3D
 Schrodinger Suite 2021-2.
 50 52  0  0  1  0            999 V2000
   -0.9367    0.8483   -4.3503 O   0  0  0  0  0  0
   -1.1505    0.5220   -3.0266 C   0  0  2  0  0  0
   -2.5856    0.7793   -2.6737 C   0  0  0  0  0  0
   -2.7994    0.4530   -1.3501 O   0  0  0  0  0  0
   -2.7537   -0.8970   -1.0674 C   0  0  0  0  0  0
   -3.0008   -1.1099    0.3967 C   0  0  0  0  0  0
   -4.0860   -1.8781    0.8121 C   0  0  0  0  0  0
   -4.3247   -2.0824    2.1682 C   0  0  0  0  0  0
   -3.4698   -1.5122    3.1054 C   0  0  0  0  0  0
   -3.7542   -1.7573    4.7897 Cl  0  0  0  0  0  0
   -2.3855   -0.7446    2.6893 C   0  0  0  0  0  0
   -2.1448   -0.5391    1.3337 C   0  0  0  0  0  0
   -0.2632    1.3606   -2.1552 C   0  0  0  0  0  0
    1.1335    1.1101   -2.4987 N   0  3  0  0  0  0
    1.4510   -0.3980   -2.3991 C   0  0  0  0  0  0
    2.9552   -0.6407   -2.6593 C   0  0  0  0  0  0
    3.8039    0.1747   -1.7831 N   0  0  0  0  0  0
    3.7013   -0.2609   -0.3933 C   0  0  0  0  0  0
    4.0099    0.6129    0.6479 C   0  0  0  0  0  0
    3.9046    0.1746    1.9678 C   0  0  0  0  0  0
    3.4912   -1.1333    2.2113 C   0  0  0  0  0  0
    3.1994   -1.9508    1.1203 C   0  0  0  0  0  0
    3.2976   -1.5369   -0.1700 N   0  0  0  0  0  0
    3.5438    1.6132   -1.9094 C   0  0  0  0  0  0
    2.0678    1.9637   -1.6134 C   0  0  0  0  0  0
    1.2244    1.4063   -3.4604 H   0  0  0  0  0  0
   -0.6196    0.0943   -4.9255 H   0  0  0  0  0  0
   -0.9215   -0.5322   -2.8706 H   0  0  0  0  0  0
   -3.2304    0.1699   -3.3069 H   0  0  0  0  0  0
   -2.8147    1.8335   -2.8296 H   0  0  0  0  0  0
   -1.7720   -1.2903   -1.3312 H   0  0  0  0  0  0
   -3.5198   -1.4151   -1.6443 H   0  0  0  0  0  0
   -4.7472   -2.3188    0.0783 H   0  0  0  0  0  0
   -5.1663   -2.6782    2.4921 H   0  0  0  0  0  0
   -1.7270   -0.3059    3.4254 H   0  0  0  0  0  0
   -1.3016    0.0579    1.0136 H   0  0  0  0  0  0
   -0.4322    1.1029   -1.1097 H   0  0  0  0  0  0
   -0.4924    2.4148   -2.3112 H   0  0  0  0  0  0
    0.8179   -0.9132   -3.1245 H   0  0  0  0  0  0
    1.1478   -0.7271   -1.4028 H   0  0  0  0  0  0
    3.1928   -0.4412   -3.7079 H   0  0  0  0  0  0
    3.1815   -1.7000   -2.5101 H   0  0  0  0  0  0
    4.3285    1.6236    0.4321 H   0  0  0  0  0  0
    4.1399    0.8389    2.7883 H   0  0  0  0  0  0
    3.3984   -1.5070    3.2220 H   0  0  0  0  0  0
    2.8757   -2.9724    1.2805 H   0  0  0  0  0  0
    3.8201    1.9609   -2.9088 H   0  0  0  0  0  0
    4.1913    2.1665   -1.2238 H   0  0  0  0  0  0
    1.7986    1.7649   -0.5738 H   0  0  0  0  0  0
    1.8431    3.0125   -1.8184 H   0  0  0  0  0  0
  1  2  1  0  0  0
  1 27  1  0  0  0
  2  3  1  0  0  0
  2 13  1  0  0  0
  2 28  1  0  0  0
  3  4  1  0  0  0
  3 29  1  0  0  0
  3 30  1  0  0  0
  4  5  1  0  0  0
  5  6  1  0  0  0
  5 31  1  0  0  0
  5 32  1  0  0  0
  6  7  2  0  0  0
  6 12  1  0  0  0
  7  8  1  0  0  0
  7 33  1  0  0  0
  8  9  2  0  0  0
  8 34  1  0  0  0
  9 10  1  0  0  0
  9 11  1  0  0  0
 11 12  2  0  0  0
 11 35  1  0  0  0
 12 36  1  0  0  0
 13 14  1  0  0  0
 13 37  1  0  0  0
 13 38  1  0  0  0
 14 15  1  0  0  0
 14 25  1  0  0  0
 14 26  1  0  0  0
 15 16  1  0  0  0
 15 39  1  0  0  0
 15 40  1  0  0  0
 16 17  1  0  0  0
 16 41  1  0  0  0
 16 42  1  0  0  0
 17 18  1  0  0  0
 17 24  1  0  0  0
 18 19  2  0  0  0
 18 23  1  0  0  0
 19 20  1  0  0  0
 19 43  1  0  0  0
 20 21  2  0  0  0
 20 44  1  0  0  0
 21 22  1  0  0  0
 21 45  1  0  0  0
 22 23  2  0  0  0
 22 46  1  0  0  0
 24 25  1  0  0  0
 24 47  1  0  0  0
 24 48  1  0  0  0
 25 49  1  0  0  0
 25 50  1  0  0  0
M  CHG  1  14   1
M  END
$$$$
Proto_1
                    3D
 Schrodinger Suite 2021-2.
 45 47  0  0  1  0            999 V2000
   -8.6568   -2.0179    1.2759 C   0  0  0  0  0  0
   -7.3866   -2.2292    2.0454 C   0  0  0  0  0  0
   -7.0643   -1.0183    2.7946 N   0  3  2  0  0  0
   -6.9805    0.1856    1.8294 C   0  0  0  0  0  0
   -5.9334   -0.0848    0.7171 C   0  0  0  0  0  0
   -4.6846   -0.7517    1.2778 C   0  0  0  0  0  0
   -4.6294   -1.2877    2.5693 C   0  0  0  0  0  0
   -3.0850   -2.0089    2.9096 S   0  0  0  0  0  0
   -2.5124   -1.5867    1.3328 C   0  0  0  0  0  0
   -1.1529   -1.9370    0.9320 N   0  0  0  0  0  0
   -0.0777   -1.1745    1.1013 C   0  0  0  0  0  0
   -0.1087   -0.0668    1.6249 O   0  0  0  0  0  0
    1.0346   -1.7392    0.6433 N   0  0  0  0  0  0
    2.3676   -1.1455    0.6886 C   0  0  0  0  0  0
    3.3642   -1.6126   -0.1653 C   0  0  0  0  0  0
    4.6387   -1.0538   -0.1306 C   0  0  0  0  0  0
    4.9085   -0.0244    0.7648 C   0  0  0  0  0  0
    6.4843    0.6772    0.8183 Cl  0  0  0  0  0  0
    3.9120    0.4417    1.6179 C   0  0  0  0  0  0
    2.6368   -0.1155    1.5850 C   0  0  0  0  0  0
   -3.4776   -0.9240    0.5881 C   0  0  0  0  0  0
   -3.2543   -0.4475   -0.8166 C   0  0  0  0  0  0
   -4.1125   -1.0047   -1.6715 N   0  0  0  0  0  0
   -2.3942    0.3564   -1.1641 O   0  0  0  0  0  0
   -5.7570   -1.2334    3.5877 C   0  0  0  0  0  0
   -7.8348   -0.8960    3.4382 H   0  0  0  0  0  0
   -8.8974   -2.9220    0.7166 H   0  0  0  0  0  0
   -9.4679   -1.7923    1.9684 H   0  0  0  0  0  0
   -8.5281   -1.1858    0.5838 H   0  0  0  0  0  0
   -6.5757   -2.4547    1.3530 H   0  0  0  0  0  0
   -7.5154   -3.0613    2.7376 H   0  0  0  0  0  0
   -6.7311    1.0577    2.4394 H   0  0  0  0  0  0
   -7.9845    0.3295    1.4228 H   0  0  0  0  0  0
   -5.6812    0.8521    0.2177 H   0  0  0  0  0  0
   -6.3709   -0.7162   -0.0577 H   0  0  0  0  0  0
   -1.1615   -2.8506    0.5062 H   0  0  0  0  0  0
    1.0941   -2.6466    0.2084 H   0  0  0  0  0  0
    3.1478   -2.4134   -0.8595 H   0  0  0  0  0  0
    5.4127   -1.4150   -0.7926 H   0  0  0  0  0  0
    4.1319    1.2419    2.3101 H   0  0  0  0  0  0
    1.8647    0.2488    2.2491 H   0  0  0  0  0  0
   -4.1461   -0.8308   -2.6658 H   0  0  0  0  0  0
   -4.8338   -1.6689   -1.4293 H   0  0  0  0  0  0
   -5.8854   -2.1614    4.1496 H   0  0  0  0  0  0
   -5.6632   -0.4073    4.2962 H   0  0  0  0  0  0
  1  2  1  0  0  0
  1 27  1  0  0  0
  1 28  1  0  0  0
  1 29  1  0  0  0
  2  3  1  0  0  0
  2 30  1  0  0  0
  2 31  1  0  0  0
  3  4  1  0  0  0
  3 25  1  0  0  0
  3 26  1  0  0  0
  4  5  1  0  0  0
  4 32  1  0  0  0
  4 33  1  0  0  0
  5  6  1  0  0  0
  5 34  1  0  0  0
  5 35  1  0  0  0
  6  7  2  0  0  0
  6 21  1  0  0  0
  7  8  1  0  0  0
  7 25  1  0  0  0
  8  9  1  0  0  0
  9 10  1  0  0  0
  9 21  2  0  0  0
 10 11  1  0  0  0
 10 36  1  0  0  0
 11 12  2  0  0  0
 11 13  1  0  0  0
 13 14  1  0  0  0
 13 37  1  0  0  0
 14 15  2  0  0  0
 14 20  1  0  0  0
 15 16  1  0  0  0
 15 38  1  0  0  0
 16 17  2  0  0  0
 16 39  1  0  0  0
 17 18  1  0  0  0
 17 19  1  0  0  0
 19 20  2  0  0  0
 19 40  1  0  0  0
 20 41  1  0  0  0
 21 22  1  0  0  0
 22 23  1  0  0  0
 22 24  2  0  0  0
 23 42  1  0  0  0
 23 43  1  0  0  0
 25 44  1  0  0  0
 25 45  1  0  0  0
M  CHG  1   3   1
M  END
$$$$
E6_berbamine
                    3D
 Schrodinger Suite 2021-2.
101108  0  0  1  0            999 V2000
   -2.6023    2.8488    2.4618 C   0  0  0  0  0  0
   -2.4431    1.8853    1.4870 O   0  0  0  0  0  0
   -2.2510    2.3733    0.2105 C   0  0  0  0  0  0
   -2.2493    3.7684    0.0192 C   0  0  0  0  0  0
   -2.0478    4.2952   -1.2685 C   0  0  0  0  0  0
   -1.8393    3.3946   -2.3345 C   0  0  0  0  0  0
   -1.8572    1.9906   -2.1884 C   0  0  0  0  0  0
   -2.0742    1.4889   -0.8837 C   0  0  0  0  0  0
   -2.0600    0.1191   -0.7322 O   0  0  0  0  0  0
   -2.7225   -0.4814    0.3143 C   0  0  0  0  0  0
   -4.1004   -0.2756    0.5592 C   0  0  0  0  0  0
   -4.8206    0.5573   -0.2725 O   0  0  0  0  0  0
   -5.4109   -0.0658   -1.3530 C   0  0  0  0  0  0
   -4.7632   -0.8903    1.6417 C   0  0  0  0  0  0
   -6.1069   -0.6527    1.8475 O   0  0  0  0  0  0
   -6.6547   -1.3039    2.9340 C   0  0  0  0  0  0
   -4.0659   -1.7479    2.5130 C   0  0  0  0  0  0
   -2.6992   -1.9993    2.2956 C   0  0  0  0  0  0
   -2.0672   -1.3708    1.1987 C   0  0  0  0  0  0
   -0.5773   -1.6141    0.9430 C   0  0  1  0  0  0
    0.2900   -0.5478    1.6390 C   0  0  0  0  0  0
    1.7138   -0.5602    1.1224 C   0  0  0  0  0  0
    2.7888   -0.9952    1.9253 C   0  0  0  0  0  0
    4.0987   -0.9735    1.4061 C   0  0  0  0  0  0
    4.3390   -0.5068    0.0977 C   0  0  0  0  0  0
    5.6280   -0.4709   -0.3940 O   0  0  0  0  0  0
    6.4792   -0.2703    0.6439 C   0  0  0  0  0  0
    6.1061   -0.1485    1.8053 O   0  0  0  0  0  0
    7.8877   -0.2282    0.1298 C   0  0  0  0  0  0
    8.1366   -0.3852   -1.2285 C   0  0  0  0  0  0
    9.4417   -0.3460   -1.7049 C   0  0  0  0  0  0
   10.4978   -0.1499   -0.8231 C   0  0  0  0  0  0
   11.8688   -0.1089   -1.3235 N   0  3  0  0  0  0
   12.7544    0.0670   -0.4956 O   0  0  0  0  0  0
   12.0211   -0.2537   -2.5303 O   0  5  0  0  0  0
   10.2489    0.0071    0.5353 C   0  0  0  0  0  0
    8.9438   -0.0320    1.0117 C   0  0  0  0  0  0
    3.2740   -0.0540   -0.7047 C   0  0  0  0  0  0
    1.9601   -0.1018   -0.1872 C   0  0  0  0  0  0
    3.5398    0.4175   -1.9703 O   0  0  0  0  0  0
    2.7260    1.3952   -2.4874 C   0  0  0  0  0  0
    2.5662    2.6299   -1.8241 C   0  0  0  0  0  0
    1.6608    3.5873   -2.3175 C   0  0  0  0  0  0
    0.9196    3.3257   -3.4902 C   0  0  0  0  0  0
    1.1170    2.1106   -4.1820 C   0  0  0  0  0  0
    2.0152    1.1491   -3.6784 C   0  0  0  0  0  0
   -0.0851    4.3470   -3.9949 C   0  0  0  0  0  0
   -1.5652    3.9556   -3.7371 C   0  0  2  0  0  0
   -2.4921    5.0640   -4.0804 N   0  3  2  0  0  0
   -1.9158    5.8467   -5.1698 C   0  0  0  0  0  0
   -2.8858    5.9673   -2.9662 C   0  0  0  0  0  0
   -2.0587    5.7555   -1.6842 C   0  0  0  0  0  0
   -0.0982   -2.9836    1.2640 N   0  3  1  0  0  0
    1.2361   -2.8379    1.8385 C   0  0  0  0  0  0
   -0.9485   -3.7955    2.1654 C   0  0  0  0  0  0
   -1.8003   -2.9239    3.0957 C   0  0  0  0  0  0
   -3.3452    4.6422   -4.4206 H   0  0  0  0  0  0
    0.0027   -3.4908    0.3962 H   0  0  0  0  0  0
   -2.7467    2.3670    3.4289 H   0  0  0  0  0  0
   -1.7134    3.4786    2.4989 H   0  0  0  0  0  0
   -3.4726    3.4621    2.2280 H   0  0  0  0  0  0
   -2.4063    4.4253    0.8643 H   0  0  0  0  0  0
   -1.6895    1.3160   -3.0164 H   0  0  0  0  0  0
   -5.9532    0.6709   -1.9458 H   0  0  0  0  0  0
   -4.6416   -0.5324   -1.9684 H   0  0  0  0  0  0
   -6.1044   -0.8284   -0.9984 H   0  0  0  0  0  0
   -7.7127   -1.0538    3.0119 H   0  0  0  0  0  0
   -6.5443   -2.3806    2.8058 H   0  0  0  0  0  0
   -6.1396   -0.9913    3.8424 H   0  0  0  0  0  0
   -4.5903   -2.2152    3.3364 H   0  0  0  0  0  0
   -0.4192   -1.5245   -0.1324 H   0  0  0  0  0  0
    0.2701   -0.6596    2.7241 H   0  0  0  0  0  0
   -0.1154    0.4458    1.4380 H   0  0  0  0  0  0
    2.6348   -1.3230    2.9445 H   0  0  0  0  0  0
    4.9310   -1.2956    2.0171 H   0  0  0  0  0  0
    7.3144   -0.5379   -1.9151 H   0  0  0  0  0  0
    9.6355   -0.4684   -2.7624 H   0  0  0  0  0  0
   11.0711    0.1598    1.2219 H   0  0  0  0  0  0
    8.7501    0.0902    2.0692 H   0  0  0  0  0  0
    1.1372    0.2472   -0.7954 H   0  0  0  0  0  0
    3.1242    2.8301   -0.9201 H   0  0  0  0  0  0
    1.5410    4.5162   -1.7781 H   0  0  0  0  0  0
    0.5827    1.8979   -5.0969 H   0  0  0  0  0  0
    2.1572    0.2129   -4.1997 H   0  0  0  0  0  0
    0.0874    4.5019   -5.0613 H   0  0  0  0  0  0
    0.1515    5.3000   -3.5223 H   0  0  0  0  0  0
   -1.7912    3.1566   -4.4458 H   0  0  0  0  0  0
   -0.9916    6.3151   -4.8313 H   0  0  0  0  0  0
   -1.7030    5.1918   -6.0147 H   0  0  0  0  0  0
   -2.6226    6.6177   -5.4768 H   0  0  0  0  0  0
   -3.9365    5.7764   -2.7394 H   0  0  0  0  0  0
   -2.8271    7.0068   -3.2926 H   0  0  0  0  0  0
   -1.0349    6.1134   -1.7964 H   0  0  0  0  0  0
   -2.4884    6.3481   -0.8740 H   0  0  0  0  0  0
    1.1687   -2.2932    2.7802 H   0  0  0  0  0  0
    1.6635   -3.8242    2.0190 H   0  0  0  0  0  0
    1.8720   -2.2876    1.1451 H   0  0  0  0  0  0
   -0.3234   -4.4817    2.7390 H   0  0  0  0  0  0
   -1.6102   -4.4131    1.5550 H   0  0  0  0  0  0
   -2.4244   -3.5614    3.7253 H   0  0  0  0  0  0
   -1.1813   -2.3378    3.7770 H   0  0  0  0  0  0
  1  2  1  0  0  0
  1 59  1  0  0  0
  1 60  1  0  0  0
  1 61  1  0  0  0
  2  3  1  0  0  0
  3  4  2  0  0  0
  3  8  1  0  0  0
  4  5  1  0  0  0
  4 62  1  0  0  0
  5  6  2  0  0  0
  5 52  1  0  0  0
  6  7  1  0  0  0
  6 48  1  0  0  0
  7  8  2  0  0  0
  7 63  1  0  0  0
  8  9  1  0  0  0
  9 10  1  0  0  0
 10 11  2  0  0  0
 10 19  1  0  0  0
 11 12  1  0  0  0
 11 14  1  0  0  0
 12 13  1  0  0  0
 13 64  1  0  0  0
 13 65  1  0  0  0
 13 66  1  0  0  0
 14 15  1  0  0  0
 14 17  2  0  0  0
 15 16  1  0  0  0
 16 67  1  0  0  0
 16 68  1  0  0  0
 16 69  1  0  0  0
 17 18  1  0  0  0
 17 70  1  0  0  0
 18 19  2  0  0  0
 18 56  1  0  0  0
 19 20  1  0  0  0
 20 21  1  0  0  0
 20 53  1  0  0  0
 20 71  1  0  0  0
 21 22  1  0  0  0
 21 72  1  0  0  0
 21 73  1  0  0  0
 22 23  2  0  0  0
 22 39  1  0  0  0
 23 24  1  0  0  0
 23 74  1  0  0  0
 24 25  2  0  0  0
 24 75  1  0  0  0
 25 26  1  0  0  0
 25 38  1  0  0  0
 26 27  1  0  0  0
 27 28  2  0  0  0
 27 29  1  0  0  0
 29 30  2  0  0  0
 29 37  1  0  0  0
 30 31  1  0  0  0
 30 76  1  0  0  0
 31 32  2  0  0  0
 31 77  1  0  0  0
 32 33  1  0  0  0
 32 36  1  0  0  0
 33 34  2  0  0  0
 33 35  1  0  0  0
 36 37  2  0  0  0
 36 78  1  0  0  0
 37 79  1  0  0  0
 38 39  2  0  0  0
 38 40  1  0  0  0
 39 80  1  0  0  0
 40 41  1  0  0  0
 41 42  2  0  0  0
 41 46  1  0  0  0
 42 43  1  0  0  0
 42 81  1  0  0  0
 43 44  2  0  0  0
 43 82  1  0  0  0
 44 45  1  0  0  0
 44 47  1  0  0  0
 45 46  2  0  0  0
 45 83  1  0  0  0
 46 84  1  0  0  0
 47 48  1  0  0  0
 47 85  1  0  0  0
 47 86  1  0  0  0
 48 49  1  0  0  0
 48 87  1  0  0  0
 49 50  1  0  0  0
 49 51  1  0  0  0
 49 57  1  0  0  0
 50 88  1  0  0  0
 50 89  1  0  0  0
 50 90  1  0  0  0
 51 52  1  0  0  0
 51 91  1  0  0  0
 51 92  1  0  0  0
 52 93  1  0  0  0
 52 94  1  0  0  0
 53 54  1  0  0  0
 53 55  1  0  0  0
 53 58  1  0  0  0
 54 95  1  0  0  0
 54 96  1  0  0  0
 54 97  1  0  0  0
 55 56  1  0  0  0
 55 98  1  0  0  0
 55 99  1  0  0  0
 56100  1  0  0  0
 56101  1  0  0  0
M  CHG  4  33   1  35  -1  49   1  53   1
M  END
$$$$
Amsacrine
                    3D
 Schrodinger Suite 2021-2.
 48 51  0  0  1  0            999 V2000
   -3.9399    0.3332   -1.6950 C   0  0  0  0  0  0
   -2.7624    0.2449   -0.9809 O   0  0  0  0  0  0
   -2.8560   -0.4347    0.2165 C   0  0  0  0  0  0
   -4.0744   -0.9684    0.6192 C   0  0  0  0  0  0
   -4.1687   -1.6528    1.8251 C   0  0  0  0  0  0
   -5.4487   -2.2134    2.2482 N   0  0  0  0  0  0
   -6.8561   -2.0247    1.2427 S   0  0  0  0  0  0
   -7.5661   -0.4978    1.8196 C   0  0  0  0  0  0
   -7.7906   -3.1042    1.5796 O   0  0  0  0  0  0
   -6.3936   -1.8078   -0.1324 O   0  0  0  0  0  0
   -3.0445   -1.8035    2.6284 C   0  0  0  0  0  0
   -1.8261   -1.2698    2.2257 C   0  0  0  0  0  0
   -1.7319   -0.5854    1.0197 C   0  0  0  0  0  0
   -0.4519   -0.0248    0.5966 N   0  0  0  0  0  0
    0.6386    0.1119    1.5577 C   0  0  0  0  0  0
    1.9440   -0.2833    1.1826 C   0  0  0  0  0  0
    2.2596   -0.8125   -0.0920 C   0  0  0  0  0  0
    3.5671   -1.1850   -0.4043 C   0  0  0  0  0  0
    4.5878   -1.0440    0.5313 C   0  0  0  0  0  0
    4.3154   -0.5268    1.7965 C   0  0  0  0  0  0
    2.9984   -0.1458    2.1266 C   0  0  0  0  0  0
    2.6866    0.3685    3.3624 N   0  3  0  0  0  0
    1.4355    0.7650    3.7706 C   0  0  0  0  0  0
    1.2100    1.2828    5.0629 C   0  0  0  0  0  0
   -0.0748    1.6731    5.4358 C   0  0  0  0  0  0
   -1.1328    1.5537    4.5395 C   0  0  0  0  0  0
   -0.9252    1.0433    3.2579 C   0  0  0  0  0  0
    0.3657    0.6365    2.8428 C   0  0  0  0  0  0
    3.4401    0.4629    4.0266 H   0  0  0  0  0  0
   -3.7642    0.8842   -2.6189 H   0  0  0  0  0  0
   -4.2971   -0.6689   -1.9319 H   0  0  0  0  0  0
   -4.6886    0.8541   -1.0981 H   0  0  0  0  0  0
   -4.9497   -0.8510   -0.0061 H   0  0  0  0  0  0
   -5.5189   -2.7231    3.1462 H   0  0  0  0  0  0
   -8.4687   -0.2784    1.2493 H   0  0  0  0  0  0
   -7.8175   -0.5903    2.8762 H   0  0  0  0  0  0
   -6.8469    0.3105    1.6867 H   0  0  0  0  0  0
   -3.1180   -2.3363    3.5673 H   0  0  0  0  0  0
   -0.9510   -1.3871    2.8510 H   0  0  0  0  0  0
   -0.3176    0.2758   -0.3846 H   0  0  0  0  0  0
    1.4746   -0.9270   -0.8283 H   0  0  0  0  0  0
    3.7956   -1.5884   -1.3824 H   0  0  0  0  0  0
    5.5960   -1.3392    0.2689 H   0  0  0  0  0  0
    5.1108   -0.4183    2.5215 H   0  0  0  0  0  0
    2.0304    1.3768    5.7618 H   0  0  0  0  0  0
   -0.2573    2.0718    6.4259 H   0  0  0  0  0  0
   -2.1246    1.8615    4.8449 H   0  0  0  0  0  0
   -1.7562    0.9556    2.5700 H   0  0  0  0  0  0
  1  2  1  0  0  0
  1 30  1  0  0  0
  1 31  1  0  0  0
  1 32  1  0  0  0
  2  3  1  0  0  0
  3  4  2  0  0  0
  3 13  1  0  0  0
  4  5  1  0  0  0
  4 33  1  0  0  0
  5  6  1  0  0  0
  5 11  2  0  0  0
  6  7  1  0  0  0
  6 34  1  0  0  0
  7  8  1  0  0  0
  7  9  2  0  0  0
  7 10  2  0  0  0
  8 35  1  0  0  0
  8 36  1  0  0  0
  8 37  1  0  0  0
 11 12  1  0  0  0
 11 38  1  0  0  0
 12 13  2  0  0  0
 12 39  1  0  0  0
 13 14  1  0  0  0
 14 15  1  0  0  0
 14 40  1  0  0  0
 15 16  1  0  0  0
 15 28  2  0  0  0
 16 17  2  0  0  0
 16 21  1  0  0  0
 17 18  1  0  0  0
 17 41  1  0  0  0
 18 19  2  0  0  0
 18 42  1  0  0  0
 19 20  1  0  0  0
 19 43  1  0  0  0
 20 21  2  0  0  0
 20 44  1  0  0  0
 21 22  1  0  0  0
 22 23  2  0  0  0
 22 29  1  0  0  0
 23 24  1  0  0  0
 23 28  1  0  0  0
 24 25  2  0  0  0
 24 45  1  0  0  0
 25 26  1  0  0  0
 25 46  1  0  0  0
 26 27  2  0  0  0
 26 47  1  0  0  0
 27 28  1  0  0  0
 27 48  1  0  0  0
M  CHG  1  22   1
M  END
$$$$
Phenoxybenzamine
                    3D
 Schrodinger Suite 2021-2.
 44 45  0  0  1  0            999 V2000
   -0.9400    0.1266   -3.2557 C   0  0  0  0  0  0
   -0.3461    0.7434   -2.0240 C   0  0  1  0  0  0
   -0.8571    0.0265   -0.8096 C   0  0  0  0  0  0
   -2.2323    0.1305   -0.7588 O   0  0  0  0  0  0
   -2.8248   -0.4928    0.3205 C   0  0  0  0  0  0
   -4.2055   -0.4531    0.4740 C   0  0  0  0  0  0
   -4.8022   -1.0809    1.5609 C   0  0  0  0  0  0
   -4.0182   -1.7484    2.4944 C   0  0  0  0  0  0
   -2.6375   -1.7881    2.3410 C   0  0  0  0  0  0
   -2.0407   -1.1603    1.2540 C   0  0  0  0  0  0
    1.1088    0.6334   -2.0778 N   0  3  2  0  0  0
    1.5662    0.8902   -3.4403 C   0  0  0  0  0  0
    1.1536    2.2717   -3.8542 C   0  0  0  0  0  0
    1.7178    2.5708   -5.5168 Cl  0  0  0  0  0  0
    1.5104   -0.7113   -1.6750 C   0  0  0  0  0  0
    2.3976   -0.6277   -0.4684 C   0  0  0  0  0  0
    1.8432   -0.6631    0.8055 C   0  0  0  0  0  0
    2.6653   -0.5856    1.9235 C   0  0  0  0  0  0
    4.0417   -0.4728    1.7675 C   0  0  0  0  0  0
    4.5961   -0.4373    0.4936 C   0  0  0  0  0  0
    3.7740   -0.5148   -0.6245 C   0  0  0  0  0  0
    1.5210    1.3098   -1.4513 H   0  0  0  0  0  0
   -2.0262    0.2087   -3.2155 H   0  0  0  0  0  0
   -0.5686    0.6475   -4.1382 H   0  0  0  0  0  0
   -0.6568   -0.9246   -3.3083 H   0  0  0  0  0  0
   -0.6292    1.7947   -1.9714 H   0  0  0  0  0  0
   -0.4255    0.4747    0.0853 H   0  0  0  0  0  0
   -0.5739   -1.0247   -0.8622 H   0  0  0  0  0  0
   -4.8160    0.0666   -0.2528 H   0  0  0  0  0  0
   -5.8772   -1.0500    1.6804 H   0  0  0  0  0  0
   -4.4828   -2.2372    3.3406 H   0  0  0  0  0  0
   -2.0270   -2.3078    3.0677 H   0  0  0  0  0  0
   -0.9658   -1.1912    1.1345 H   0  0  0  0  0  0
    1.1214    0.1602   -4.1167 H   0  0  0  0  0  0
    2.6524    0.8080   -3.4805 H   0  0  0  0  0  0
    1.6031    3.0093   -3.1894 H   0  0  0  0  0  0
    0.0675    2.3594   -3.8274 H   0  0  0  0  0  0
    2.0518   -1.1887   -2.4917 H   0  0  0  0  0  0
    0.6241   -1.2984   -1.4343 H   0  0  0  0  0  0
    0.7716   -0.7509    0.9271 H   0  0  0  0  0  0
    2.2337   -0.6131    2.9154 H   0  0  0  0  0  0
    4.6817   -0.4125    2.6379 H   0  0  0  0  0  0
    5.6677   -0.3495    0.3720 H   0  0  0  0  0  0
    4.2057   -0.4872   -1.6163 H   0  0  0  0  0  0
  1  2  1  0  0  0
  1 23  1  0  0  0
  1 24  1  0  0  0
  1 25  1  0  0  0
  2  3  1  0  0  0
  2 11  1  0  0  0
  2 26  1  0  0  0
  3  4  1  0  0  0
  3 27  1  0  0  0
  3 28  1  0  0  0
  4  5  1  0  0  0
  5  6  2  0  0  0
  5 10  1  0  0  0
  6  7  1  0  0  0
  6 29  1  0  0  0
  7  8  2  0  0  0
  7 30  1  0  0  0
  8  9  1  0  0  0
  8 31  1  0  0  0
  9 10  2  0  0  0
  9 32  1  0  0  0
 10 33  1  0  0  0
 11 12  1  0  0  0
 11 15  1  0  0  0
 11 22  1  0  0  0
 12 13  1  0  0  0
 12 34  1  0  0  0
 12 35  1  0  0  0
 13 14  1  0  0  0
 13 36  1  0  0  0
 13 37  1  0  0  0
 15 16  1  0  0  0
 15 38  1  0  0  0
 15 39  1  0  0  0
 16 17  2  0  0  0
 16 21  1  0  0  0
 17 18  1  0  0  0
 17 40  1  0  0  0
 18 19  2  0  0  0
 18 41  1  0  0  0
 19 20  1  0  0  0
 19 42  1  0  0  0
 20 21  2  0  0  0
 20 43  1  0  0  0
 21 44  1  0  0  0
M  CHG  1  11   1
M  END
$$$$
Carvedilol_derivate_13
                    3D
 Schrodinger Suite 2021-2.
 56 59  0  0  1  0            999 V2000
    2.3504   -3.3753    2.3153 C   0  0  0  0  0  0
    2.4634   -2.8795    1.0324 O   0  0  0  0  0  0
    3.2461   -1.7494    0.9107 C   0  0  0  0  0  0
    3.8497   -1.1979    2.0346 C   0  0  0  0  0  0
    4.6380   -0.0598    1.9120 C   0  0  0  0  0  0
    4.8226    0.5268    0.6657 C   0  0  0  0  0  0
    4.2189   -0.0247   -0.4582 C   0  0  0  0  0  0
    3.4306   -1.1629   -0.3356 C   0  0  0  0  0  0
    2.8311   -1.7105   -1.4515 O   0  0  0  0  0  0
    3.0832   -1.0458   -2.6344 C   0  0  0  0  0  0
    2.3778    0.2780   -2.6242 C   0  0  0  0  0  0
    0.9406    0.0625   -2.4838 N   0  3  0  0  0  0
    0.2541    1.3510   -2.4739 C   0  0  0  0  0  0
   -1.2224    1.1296   -2.3296 C   0  0  0  0  0  0
   -1.4964    0.4072   -1.0439 C   0  0  0  0  0  0
   -2.8549    0.2035   -0.9112 O   0  0  0  0  0  0
   -3.2361   -0.4563    0.2394 C   0  0  0  0  0  0
   -2.2779   -0.8644    1.1652 C   0  0  0  0  0  0
   -2.6480   -1.5302    2.3289 C   0  0  0  0  0  0
   -3.9843   -1.8141    2.6141 C   0  0  0  0  0  0
   -4.9451   -1.4052    1.6861 C   0  0  0  0  0  0
   -6.3182   -1.5406    1.6903 N   0  0  0  0  0  0
   -6.8545   -0.9761    0.5512 C   0  0  0  0  0  0
   -8.1793   -0.8715    0.1204 C   0  0  0  0  0  0
   -8.4143   -0.2344   -1.0988 C   0  0  0  0  0  0
   -7.3729    0.2805   -1.8634 C   0  0  0  0  0  0
   -6.0513    0.1763   -1.4341 C   0  0  0  0  0  0
   -5.7782   -0.4584   -0.2124 C   0  0  0  0  0  0
   -4.5898   -0.7255    0.4940 C   0  0  0  0  0  0
    1.7168   -4.2623    2.3076 H   0  0  0  0  0  0
    1.9062   -2.6170    2.9601 H   0  0  0  0  0  0
    3.3390   -3.6383    2.6915 H   0  0  0  0  0  0
    3.7061   -1.6546    3.0050 H   0  0  0  0  0  0
    5.1081    0.3695    2.7870 H   0  0  0  0  0  0
    5.4363    1.4128    0.5702 H   0  0  0  0  0  0
    4.3625    0.4319   -1.4285 H   0  0  0  0  0  0
    4.1562   -0.8849   -2.7392 H   0  0  0  0  0  0
    2.7220   -1.6436   -3.4712 H   0  0  0  0  0  0
    2.7391    0.8757   -1.7874 H   0  0  0  0  0  0
    2.5770    0.8029   -3.5585 H   0  0  0  0  0  0
    0.6060   -0.4914   -3.2592 H   0  0  0  0  0  0
    0.6153    1.9487   -1.6371 H   0  0  0  0  0  0
    0.4532    1.8759   -3.4082 H   0  0  0  0  0  0
   -1.7351    2.0914   -2.3223 H   0  0  0  0  0  0
   -1.5838    0.5318   -3.1665 H   0  0  0  0  0  0
   -0.9839   -0.5548   -1.0513 H   0  0  0  0  0  0
   -1.1352    1.0049   -0.2072 H   0  0  0  0  0  0
   -1.2309   -0.6620    0.9789 H   0  0  0  0  0  0
   -1.8792   -1.8340    3.0281 H   0  0  0  0  0  0
   -4.2579   -2.3325    3.5228 H   0  0  0  0  0  0
   -6.8543   -1.9889    2.4226 H   0  0  0  0  0  0
   -8.9986   -1.2673    0.7047 H   0  0  0  0  0  0
   -9.4302   -0.1374   -1.4604 H   0  0  0  0  0  0
   -7.5949    0.7681   -2.8042 H   0  0  0  0  0  0
   -5.2489    0.5802   -2.0365 H   0  0  0  0  0  0
    0.7562   -0.4239   -1.6181 H   0  0  0  0  0  0
  1  2  1  0  0  0
  1 30  1  0  0  0
  1 31  1  0  0  0
  1 32  1  0  0  0
  2  3  1  0  0  0
  3  4  2  0  0  0
  3  8  1  0  0  0
  4  5  1  0  0  0
  4 33  1  0  0  0
  5  6  2  0  0  0
  5 34  1  0  0  0
  6  7  1  0  0  0
  6 35  1  0  0  0
  7  8  2  0  0  0
  7 36  1  0  0  0
  8  9  1  0  0  0
  9 10  1  0  0  0
 10 11  1  0  0  0
 10 37  1  0  0  0
 10 38  1  0  0  0
 11 12  1  0  0  0
 11 39  1  0  0  0
 11 40  1  0  0  0
 12 13  1  0  0  0
 12 41  1  0  0  0
 12 56  1  0  0  0
 13 14  1  0  0  0
 13 42  1  0  0  0
 13 43  1  0  0  0
 14 15  1  0  0  0
 14 44  1  0  0  0
 14 45  1  0  0  0
 15 16  1  0  0  0
 15 46  1  0  0  0
 15 47  1  0  0  0
 16 17  1  0  0  0
 17 18  2  0  0  0
 17 29  1  0  0  0
 18 19  1  0  0  0
 18 48  1  0  0  0
 19 20  2  0  0  0
 19 49  1  0  0  0
 20 21  1  0  0  0
 20 50  1  0  0  0
 21 22  1  0  0  0
 21 29  2  0  0  0
 22 23  1  0  0  0
 22 51  1  0  0  0
 23 24  2  0  0  0
 23 28  1  0  0  0
 24 25  1  0  0  0
 24 52  1  0  0  0
 25 26  2  0  0  0
 25 53  1  0  0  0
 26 27  1  0  0  0
 26 54  1  0  0  0
 27 28  2  0  0  0
 27 55  1  0  0  0
 28 29  1  0  0  0
M  CHG  1  12   1
M  END
$$$$
ORC_13661
                    3D
 Schrodinger Suite 2021-2.
 46 49  0  0  1  0            999 V2000
   -6.8982   -2.2504    1.2751 C   0  0  0  0  0  0
   -7.0636   -0.8141    1.4784 N   0  3  1  0  0  0
   -6.9527   -0.4621    2.9135 C   0  0  2  0  0  0
   -6.6569    1.0519    2.8821 C   0  0  0  0  0  0
   -6.0561    1.3118    1.4853 C   0  0  0  0  0  0
   -5.9429   -0.0824    0.8521 C   0  0  1  0  0  0
   -4.6750   -0.7608    1.3079 C   0  0  0  0  0  0
   -4.6150   -1.2851    2.5743 C   0  0  0  0  0  0
   -3.0664   -1.9970    2.9193 S   0  0  0  0  0  0
   -2.5024   -1.5896    1.3193 C   0  0  0  0  0  0
   -1.1409   -1.9420    0.9271 N   0  0  0  0  0  0
   -0.0666   -1.1784    1.0970 C   0  0  0  0  0  0
   -0.1004   -0.0675    1.6139 O   0  0  0  0  0  0
    1.0480   -1.7456    0.6477 N   0  0  0  0  0  0
    2.3807   -1.1513    0.6960 C   0  0  0  0  0  0
    3.3814   -1.6232   -0.1506 C   0  0  0  0  0  0
    4.6556   -1.0640   -0.1130 C   0  0  0  0  0  0
    4.9210   -0.0294    0.7776 C   0  0  0  0  0  0
    6.4964    0.6729    0.8346 Cl  0  0  0  0  0  0
    3.9204    0.4416    1.6232 C   0  0  0  0  0  0
    2.6454   -0.1160    1.5874 C   0  0  0  0  0  0
   -3.4599   -0.9395    0.5824 C   0  0  0  0  0  0
   -3.2656   -0.4519   -0.8227 C   0  0  0  0  0  0
   -4.1310   -1.0143   -1.6669 N   0  0  0  0  0  0
   -2.4210    0.3644   -1.1793 O   0  0  0  0  0  0
   -5.7740   -1.2716    3.5244 C   0  0  0  0  0  0
   -5.9434   -2.5690    1.6934 H   0  0  0  0  0  0
   -6.9191   -2.4711    0.2078 H   0  0  0  0  0  0
   -7.7086   -2.7835    1.7722 H   0  0  0  0  0  0
   -7.8745   -0.6709    3.4596 H   0  0  0  0  0  0
   -7.5722    1.6325    3.0110 H   0  0  0  0  0  0
   -5.9752    1.3529    3.6801 H   0  0  0  0  0  0
   -6.7371    1.9374    0.9058 H   0  0  0  0  0  0
   -5.0966    1.8321    1.5240 H   0  0  0  0  0  0
   -6.0201   -0.0592   -0.2363 H   0  0  0  0  0  0
   -1.1472   -2.8580    0.5067 H   0  0  0  0  0  0
    1.1097   -2.6554    0.2185 H   0  0  0  0  0  0
    3.1684   -2.4282   -0.8409 H   0  0  0  0  0  0
    5.4328   -1.4291   -0.7691 H   0  0  0  0  0  0
    4.1369    1.2460    2.3117 H   0  0  0  0  0  0
    1.8701    0.2521    2.2456 H   0  0  0  0  0  0
   -4.8401   -1.6886   -1.4169 H   0  0  0  0  0  0
   -4.1831   -0.8347   -2.6594 H   0  0  0  0  0  0
   -5.4722   -0.8573    4.4882 H   0  0  0  0  0  0
   -6.0845   -2.2988    3.7227 H   0  0  0  0  0  0
   -7.9415   -0.4921    1.0997 H   0  0  0  0  0  0
  1  2  1  0  0  0
  1 27  1  0  0  0
  1 28  1  0  0  0
  1 29  1  0  0  0
  2  3  1  0  0  0
  2  6  1  0  0  0
  2 46  1  0  0  0
  3  4  1  0  0  0
  3 26  1  0  0  0
  3 30  1  0  0  0
  4  5  1  0  0  0
  4 31  1  0  0  0
  4 32  1  0  0  0
  5  6  1  0  0  0
  5 33  1  0  0  0
  5 34  1  0  0  0
  6  7  1  0  0  0
  6 35  1  0  0  0
  7  8  2  0  0  0
  7 22  1  0  0  0
  8  9  1  0  0  0
  8 26  1  0  0  0
  9 10  1  0  0  0
 10 11  1  0  0  0
 10 22  2  0  0  0
 11 12  1  0  0  0
 11 36  1  0  0  0
 12 13  2  0  0  0
 12 14  1  0  0  0
 14 15  1  0  0  0
 14 37  1  0  0  0
 15 16  2  0  0  0
 15 21  1  0  0  0
 16 17  1  0  0  0
 16 38  1  0  0  0
 17 18  2  0  0  0
 17 39  1  0  0  0
 18 19  1  0  0  0
 18 20  1  0  0  0
 20 21  2  0  0  0
 20 40  1  0  0  0
 21 41  1  0  0  0
 22 23  1  0  0  0
 23 24  1  0  0  0
 23 25  2  0  0  0
 24 42  1  0  0  0
 24 43  1  0  0  0
 26 44  1  0  0  0
 26 45  1  0  0  0
M  CHG  1   2   1
M  END
$$$$
